[TITLE]
Modena -- Bragalli, D'Ambrosio, Lee, Lodi, Toth (2008)
Originally presented by:
Bragalli, C., D'Ambrosio, C., Lee, J., Lodi, A., & Toth, P. (2012, June). On the optimal design of water distribution networks: a practical MINLP approach. Optimization and Engineering, 13 (2), 219-246.
Details of this specific conversion process are included in:
PLACEHOLDER

[JUNCTIONS]
;ID              	Elev        	Demand      	Pattern
         1      39.49          0                     ;
         2      39.62          0                     ;
         3      38.70          0                     ;
         4      37.25          0                     ;
         5      36.27          0                     ;
         6      35.95          0                     ;
         7      35.95          0                     ;
         8      36.09          0                     ;
         9      36.18          0                     ;
        10      37.00          0                     ;
        11      36.50          0                     ;
        12      37.39          0                     ;
        13      38.07          0                     ;
        14      37.02          0                     ;
        15      41.26          0                     ;
        16      39.35          0                     ;
        17      39.53          0                     ;
        18      36.59          0                     ;
        19      36.76          0                     ;
        20      37.72          0                     ;
        21      37.31          0                     ;
        22      37.62          0                     ;
        23      36.99          0                     ;
        24      35.20          0                     ;
        25      35.11          0                     ;
        26      34.65          0                     ;
        27      34.33          0                     ;
        28      36.15          0                     ;
        29      36.30          0                     ;
        30      36.10          0                     ;
        31      36.14          0                     ;
        32      35.80          0                     ;
        33      33.26          0                     ;
        34      33.34          0                     ;
        35      33.51          0                     ;
        36      32.70          0                     ;
        37      32.65          0                     ;
        38      32.56          0                     ;
        39      33.56          0                     ;
        40      31.59          0                     ;
        41      31.38          0                     ;
        42      32.67          0                     ;
        43      33.50          0                     ;
        44      33.57          0                     ;
        45      33.77          0                     ;
        46      34.14          0                     ;
        47      33.68          0                     ;
        48      33.71          0                     ;
        49      31.68          0                     ;
        50      33.34          0                     ;
        51      32.83          0                     ;
        52      32.78          0                     ;
        53      39.28          0                     ;
        54      37.12          0                     ;
        55      36.48          0                     ;
        56      36.42          0                     ;
        57      36.13          0                     ;
        58      36.05          0                     ;
        59      36.77          0                     ;
        60      35.48          0                     ;
        61      35.05          0                     ;
        62      35.10          0                     ;
        63      37.95          0                     ;
        64      38.44          0                     ;
        65      37.81          0                     ;
        66      38.22          0                     ;
        67      38.73          0                     ;
        68      38.95          0                     ;
        69      39.70          0                     ;
        70      40.59          0                     ;
        71      40.81          0                     ;
        72      41.06          0                     ;
        73      41.45          0                     ;
        74      41.83          0                     ;
        75      41.44          0                     ;
        76      41.09          0                     ;
        77      40.74          0                     ;
        78      38.60          0                     ;
        79      36.91          0                     ;
        80      36.75          0                     ;
        81      36.81          0                     ;
        82      37.05          0                     ;
        83      35.88          0                     ;
        84      36.45          0                     ;
        85      36.16          0                     ;
        86      34.99          0                     ;
        87      35.61          0                     ;
        88      34.89          0                     ;
        89      35.59          0                     ;
        90      35.70          0                     ;
        91      35.20          0                     ;
        92      35.64          0                     ;
        93      35.93          0                     ;
        94      37.64          0                     ;
        95      37.17          0                     ;
        96      37.10          0                     ;
        97      36.97          0                     ;
        98      37.00          0                     ;
        99      36.74          0                     ;
       100      34.78          0                     ;
       101      34.26          0                     ;
       102      33.66          0                     ;
       103      33.78          0                     ;
       104      33.75          0                     ;
       105      33.38          0                     ;
       106      34.85          0                     ;
       107      34.27          0                     ;
       108      34.30          0                     ;
       109      33.95          0                     ;
       110      33.92          0                     ;
       111      32.32          0                     ;
       112      34.76          0                     ;
       113      34.21          0                     ;
       114      34.92          0                     ;
       115      32.96          0                     ;
       116      30.69          0                     ;
       117      30.59          0                     ;
       118      30.73          0                     ;
       119      30.70          0                     ;
       120      31.02          0                     ;
       121      31.03          0                     ;
       122      31.75          0                     ;
       123      32.00          0                     ;
       124      32.05          0                     ;
       125      32.10          0                     ;
       126      33.76          0                     ;
       127      32.27          0                     ;
       128      31.86          0                     ;
       129      32.42          0                     ;
       130      33.00          0                     ;
       131      33.63          0                     ;
       132      36.37          0                     ;
       133      35.69          0                     ;
       134      35.52          0                     ;
       135      35.56          0                     ;
       136      35.92          0                     ;
       137      35.37          0                     ;
       138      35.06          0                     ;
       139      34.12          0                     ;
       140      39.35          0                     ;
       141      39.10          0                     ;
       142      39.84          0                     ;
       143      39.84          0                     ;
       144      39.45          0                     ;
       145      39.70          0                     ;
       146      37.95          0                     ;
       147      37.61          0                     ;
       148      37.95          0                     ;
       149      35.69          0                     ;
       150      35.32          0                     ;
       151      35.81          0                     ;
       152      35.81          0                     ;
       153      36.02          0                     ;
       154      38.25          0                     ;
       155      37.50          0                     ;
       156      37.54          0                     ;
       157      37.08          0                     ;
       158      36.76          0                     ;
       159      35.88          0                     ;
       160      35.77          0                     ;
       161      34.70          0                     ;
       162      35.37          0                     ;
       163      34.99          0                     ;
       164      35.93          0                     ;
       165      36.27          0                     ;
       166      32.67          0                     ;
       167      32.75          0                     ;
       168      32.88          0                     ;
       169      34.09          0                     ;
       170      36.09          0                     ;
       171      36.05          0                     ;
       172      36.04          0                     ;
       173      36.02          0                     ;
       174      31.76          0                     ;
       175      31.91          0                     ;
       176      31.80          0                     ;
       177      31.48          0                     ;
       178      31.12          0                     ;
       179      31.10          0                     ;
       180      31.19          0                     ;
       181      30.39          0                     ;
       182      30.55          0                     ;
       183      31.13          0                     ;
       184      31.81          0                     ;
       185      32.34          0                     ;
       186      32.83          0                     ;
       187      33.69          0                     ;
       188      33.17          0                     ;
       189      33.23          0                     ;
       190      33.34          0                     ;
       191      33.77          0                     ;
       192      33.77          0                     ;
       193      32.20          0                     ;
       194      34.41          0                     ;
       195      33.39          0                     ;
       196      34.34          0                     ;
       197      35.03          0                     ;
       198      34.44          0                     ;
       199      34.53          0                     ;
       200      34.94          0                     ;
       201      34.70          0                     ;
       202      36.70          0                     ;
       203      36.20          0                     ;
       204      35.03          0                     ;
       205      36.77          0                     ;
       206      36.20          0                     ;
       207      37.88          0                     ;
       208      38.03          0                     ;
       209      36.86          0                     ;
       210      37.24          0                     ;
       211      36.66          0                     ;
       212      36.49          0                     ;
       213      37.30          0                     ;
       214      40.30          0                     ;
       215      39.85          0                     ;
       216      41.00          0                     ;
       217      41.16          0                     ;
       218      35.05          0                     ;
       219      33.92          0                     ;
       220      32.14          0                     ;
       221      34.17          0                     ;
       222      35.10          0                     ;
       223      31.55          0                     ;
       224      31.75          0                     ;
       225      32.07          0                     ;
       226      31.94          0                     ;
       227      31.66          0                     ;
       228      31.04          0                     ;
       229      31.05          0                     ;
       230      38.49          0                     ;
       231      35.68          0                     ;
       232      35.39          0                     ;
       233      34.89          0                     ;
       234      34.86          0                     ;
       235      34.99          0                     ;
       236      32.54          0                     ;
       237      34.41          0                     ;
       238      36.16          0                     ;
       239      35.30          0                     ;
       240      35.17          0                     ;
       241      32.92          0                     ;
       242      33.07          0                     ;
       243      31.91          0                     ;
       244      32.00          0                     ;
       245      32.05          0                     ;
       246      32.05          0                     ;
       247      30.70          0                     ;
       248      31.33          0                     ;
       249      36.30          0                     ;
       250      35.83          0                     ;
       251      36.95          0                     ;
       252      38.01          0                     ;
       253      36.65          0                     ;
       254      36.91          0                     ;
       255      36.77          0                     ;
       256      31.50          0                     ;
       257      38.65          0                     ;
       258      39.54          0                     ;
       259      39.58          0                     ;
       260      39.58          0                     ;
       261      40.55          0                     ;
       262      40.79          0                     ;
       263      40.95          0                     ;
       264      37.76          0                     ;
       265      35.96          0                     ;
       266      36.81          0                     ;
       267      36.21          0                     ;
       268      35.61          0                     ;
  AN1forNode1      39.49          0                     ;
  AN1forNode2      39.62          0                     ;
  AN1forNode3      38.70          0                     ;
  AN1forNode4      37.25          0                     ;
  AN1forNode5      36.27          0                     ;
  AN1forNode6      35.95          0                     ;
  AN1forNode7      35.95          0                     ;
  AN1forNode8      36.09          0                     ;
  AN1forNode9      36.18          0                     ;
 AN1forNode10      37.00          0                     ;
 AN1forNode11      36.50          0                     ;
 AN1forNode12      37.39          0                     ;
 AN1forNode13      38.07          0                     ;
 AN1forNode14      37.02          0                     ;
 AN1forNode15      41.26          0                     ;
 AN1forNode16      39.35          0                     ;
 AN1forNode17      39.53          0                     ;
 AN1forNode18      36.59          0                     ;
 AN1forNode20      37.72          0                     ;
 AN1forNode21      37.31          0                     ;
 AN1forNode22      37.62          0                     ;
 AN1forNode23      36.99          0                     ;
 AN1forNode24      35.20          0                     ;
 AN1forNode25      35.11          0                     ;
 AN1forNode26      34.65          0                     ;
 AN1forNode27      34.33          0                     ;
 AN1forNode28      36.15          0                     ;
 AN1forNode29      36.30          0                     ;
 AN1forNode30      36.10          0                     ;
 AN1forNode31      36.14          0                     ;
 AN1forNode32      35.80          0                     ;
 AN1forNode33      33.26          0                     ;
 AN1forNode34      33.34          0                     ;
 AN1forNode35      33.51          0                     ;
 AN1forNode36      32.70          0                     ;
 AN1forNode37      32.65          0                     ;
 AN1forNode38      32.56          0                     ;
 AN1forNode39      33.56          0                     ;
 AN1forNode40      31.59          0                     ;
 AN1forNode41      31.38          0                     ;
 AN1forNode42      32.67          0                     ;
 AN1forNode43      33.50          0                     ;
 AN1forNode44      33.57          0                     ;
 AN1forNode45      33.77          0                     ;
 AN1forNode46      34.14          0                     ;
 AN1forNode47      33.68          0                     ;
 AN1forNode48      33.71          0                     ;
 AN1forNode49      31.68          0                     ;
 AN1forNode50      33.34          0                     ;
 AN1forNode51      32.83          0                     ;
 AN1forNode52      32.78          0                     ;
 AN1forNode53      39.28          0                     ;
 AN1forNode54      37.12          0                     ;
 AN1forNode55      36.48          0                     ;
 AN1forNode56      36.42          0                     ;
 AN1forNode57      36.13          0                     ;
 AN1forNode58      36.05          0                     ;
 AN1forNode59      36.77          0                     ;
 AN1forNode60      35.48          0                     ;
 AN1forNode61      35.05          0                     ;
 AN1forNode62      35.10          0                     ;
 AN1forNode63      37.95          0                     ;
 AN1forNode64      38.44          0                     ;
 AN1forNode65      37.81          0                     ;
 AN1forNode66      38.22          0                     ;
 AN1forNode67      38.73          0                     ;
 AN1forNode68      38.95          0                     ;
 AN1forNode69      39.70          0                     ;
 AN1forNode70      40.59          0                     ;
 AN1forNode71      40.81          0                     ;
 AN1forNode72      41.06          0                     ;
 AN1forNode73      41.45          0                     ;
 AN1forNode74      41.83          0                     ;
 AN1forNode76      41.09          0                     ;
 AN1forNode77      40.74          0                     ;
 AN1forNode78      38.60          0                     ;
 AN1forNode79      36.91          0                     ;
 AN1forNode80      36.75          0                     ;
 AN1forNode81      36.81          0                     ;
 AN1forNode82      37.05          0                     ;
 AN1forNode83      35.88          0                     ;
 AN1forNode84      36.45          0                     ;
 AN1forNode85      36.16          0                     ;
 AN1forNode86      34.99          0                     ;
 AN1forNode87      35.61          0                     ;
 AN1forNode88      34.89          0                     ;
 AN1forNode89      35.59          0                     ;
 AN1forNode90      35.70          0                     ;
 AN1forNode91      35.20          0                     ;
 AN1forNode92      35.64          0                     ;
 AN1forNode93      35.93          0                     ;
 AN1forNode94      37.64          0                     ;
 AN1forNode95      37.17          0                     ;
 AN1forNode96      37.10          0                     ;
 AN1forNode97      36.97          0                     ;
 AN1forNode98      37.00          0                     ;
 AN1forNode99      36.74          0                     ;
AN1forNode100      34.78          0                     ;
AN1forNode101      34.26          0                     ;
AN1forNode102      33.66          0                     ;
AN1forNode103      33.78          0                     ;
AN1forNode104      33.75          0                     ;
AN1forNode105      33.38          0                     ;
AN1forNode106      34.85          0                     ;
AN1forNode107      34.27          0                     ;
AN1forNode108      34.30          0                     ;
AN1forNode109      33.95          0                     ;
AN1forNode110      33.92          0                     ;
AN1forNode111      32.32          0                     ;
AN1forNode112      34.76          0                     ;
AN1forNode113      34.21          0                     ;
AN1forNode114      34.92          0                     ;
AN1forNode115      32.96          0                     ;
AN1forNode117      30.59          0                     ;
AN1forNode120      31.02          0                     ;
AN1forNode121      31.03          0                     ;
AN1forNode122      31.75          0                     ;
AN1forNode123      32.00          0                     ;
AN1forNode125      32.10          0                     ;
AN1forNode126      33.76          0                     ;
AN1forNode127      32.27          0                     ;
AN1forNode128      31.86          0                     ;
AN1forNode129      32.42          0                     ;
AN1forNode130      33.00          0                     ;
AN1forNode131      33.63          0                     ;
AN1forNode132      36.37          0                     ;
AN1forNode133      35.69          0                     ;
AN1forNode134      35.52          0                     ;
AN1forNode135      35.56          0                     ;
AN1forNode136      35.92          0                     ;
AN1forNode137      35.37          0                     ;
AN1forNode138      35.06          0                     ;
AN1forNode139      34.12          0                     ;
AN1forNode143      39.84          0                     ;
AN1forNode144      39.45          0                     ;
AN1forNode145      39.70          0                     ;
AN1forNode146      37.95          0                     ;
AN1forNode147      37.61          0                     ;
AN1forNode148      37.95          0                     ;
AN1forNode149      35.69          0                     ;
AN1forNode150      35.32          0                     ;
AN1forNode151      35.81          0                     ;
AN1forNode152      35.81          0                     ;
AN1forNode153      36.02          0                     ;
AN1forNode154      38.25          0                     ;
AN1forNode155      37.50          0                     ;
AN1forNode156      37.54          0                     ;
AN1forNode157      37.08          0                     ;
AN1forNode158      36.76          0                     ;
AN1forNode159      35.88          0                     ;
AN1forNode160      35.77          0                     ;
AN1forNode161      34.70          0                     ;
AN1forNode162      35.37          0                     ;
AN1forNode163      34.99          0                     ;
AN1forNode164      35.93          0                     ;
AN1forNode165      36.27          0                     ;
AN1forNode166      32.67          0                     ;
AN1forNode167      32.75          0                     ;
AN1forNode168      32.88          0                     ;
AN1forNode169      34.09          0                     ;
AN1forNode170      36.09          0                     ;
AN1forNode171      36.05          0                     ;
AN1forNode172      36.04          0                     ;
AN1forNode173      36.02          0                     ;
AN1forNode175      31.91          0                     ;
AN1forNode178      31.12          0                     ;
AN1forNode182      30.55          0                     ;
AN1forNode183      31.13          0                     ;
AN1forNode184      31.81          0                     ;
AN1forNode185      32.34          0                     ;
AN1forNode186      32.83          0                     ;
AN1forNode187      33.69          0                     ;
AN1forNode188      33.17          0                     ;
AN1forNode189      33.23          0                     ;
AN1forNode190      33.34          0                     ;
AN1forNode191      33.77          0                     ;
AN1forNode192      33.77          0                     ;
AN1forNode193      32.20          0                     ;
AN1forNode194      34.41          0                     ;
AN1forNode195      33.39          0                     ;
AN1forNode196      34.34          0                     ;
AN1forNode197      35.03          0                     ;
AN1forNode198      34.44          0                     ;
AN1forNode199      34.53          0                     ;
AN1forNode200      34.94          0                     ;
AN1forNode201      34.70          0                     ;
AN1forNode202      36.70          0                     ;
AN1forNode203      36.20          0                     ;
AN1forNode204      35.03          0                     ;
AN1forNode205      36.77          0                     ;
AN1forNode206      36.20          0                     ;
AN1forNode207      37.88          0                     ;
AN1forNode208      38.03          0                     ;
AN1forNode209      36.86          0                     ;
AN1forNode210      37.24          0                     ;
AN1forNode212      36.49          0                     ;
AN1forNode213      37.30          0                     ;
AN1forNode214      40.30          0                     ;
AN1forNode216      41.00          0                     ;
AN1forNode217      41.16          0                     ;
AN1forNode218      35.05          0                     ;
AN1forNode219      33.92          0                     ;
AN1forNode220      32.14          0                     ;
AN1forNode221      34.17          0                     ;
AN1forNode222      35.10          0                     ;
AN1forNode223      31.55          0                     ;
AN1forNode224      31.75          0                     ;
AN1forNode227      31.66          0                     ;
AN1forNode228      31.04          0                     ;
AN1forNode229      31.05          0                     ;
AN1forNode230      38.49          0                     ;
AN1forNode231      35.68          0                     ;
AN1forNode232      35.39          0                     ;
AN1forNode233      34.89          0                     ;
AN1forNode234      34.86          0                     ;
AN1forNode235      34.99          0                     ;
AN1forNode236      32.54          0                     ;
AN1forNode237      34.41          0                     ;
AN1forNode238      36.16          0                     ;
AN1forNode239      35.30          0                     ;
AN1forNode240      35.17          0                     ;
AN1forNode241      32.92          0                     ;
AN1forNode242      33.07          0                     ;
AN1forNode243      31.91          0                     ;
AN1forNode244      32.00          0                     ;
AN1forNode246      32.05          0                     ;
AN1forNode247      30.70          0                     ;
AN1forNode249      36.30          0                     ;
AN1forNode250      35.83          0                     ;
AN1forNode251      36.95          0                     ;
AN1forNode252      38.01          0                     ;
AN1forNode253      36.65          0                     ;
AN1forNode255      36.77          0                     ;
AN1forNode256      31.50          0                     ;
AN1forNode257      38.65          0                     ;
AN1forNode259      39.58          0                     ;
AN1forNode260      39.58          0                     ;
AN1forNode261      40.55          0                     ;
AN1forNode262      40.79          0                     ;
AN1forNode263      40.95          0                     ;
AN1forNode264      37.76          0                     ;
AN1forNode265      35.96          0                     ;
AN1forNode266      36.81          0                     ;
AN1forNode267      36.21          0                     ;
AN1forNode268      35.61          0                     ;
  AN2forNode1      39.49          0                     ;
  AN2forNode2      39.62          0                     ;
  AN2forNode3      38.70          0                     ;
  AN2forNode4      37.25          0                     ;
  AN2forNode5      36.27          0                     ;
  AN2forNode6      35.95          0                     ;
  AN2forNode7      35.95          0                     ;
  AN2forNode8      36.09          0                     ;
  AN2forNode9      36.18          0                     ;
 AN2forNode10      37.00          0                     ;