[TITLE]
Modena -- Bragalli, D'Ambrosio, Lee, Lodi, Toth (2008)
Originally presented by:
Bragalli, C., D'Ambrosio, C., Lee, J., Lodi, A., & Toth, P. (2012, June). On the optimal design of water distribution networks: a practical MINLP approach. Optimization and Engineering, 13 (2), 219-246.
Details of this specific conversion process are included in:
PLACEHOLDER

[JUNCTIONS]
;ID              	Elev        	Demand      	Pattern
         1      39.49          0                     ;
         2      39.62          0                     ;
         3      38.70          0                     ;
         4      37.25          0                     ;
         5      36.27          0                     ;
         6      35.95          0                     ;
         7      35.95          0                     ;
         8      36.09          0                     ;
         9      36.18          0                     ;
        10      37.00          0                     ;
        11      36.50          0                     ;
        12      37.39          0                     ;
        13      38.07          0                     ;
        14      37.02          0                     ;
        15      41.26          0                     ;
        16      39.35          0                     ;
        17      39.53          0                     ;
        18      36.59          0                     ;
        19      36.76          0                     ;
        20      37.72          0                     ;
        21      37.31          0                     ;
        22      37.62          0                     ;
        23      36.99          0                     ;
        24      35.20          0                     ;
        25      35.11          0                     ;
        26      34.65          0                     ;
        27      34.33          0                     ;
        28      36.15          0                     ;
        29      36.30          0                     ;
        30      36.10          0                     ;
        31      36.14          0                     ;
        32      35.80          0                     ;
        33      33.26          0                     ;
        34      33.34          0                     ;
        35      33.51          0                     ;
        36      32.70          0                     ;
        37      32.65          0                     ;
        38      32.56          0                     ;
        39      33.56          0                     ;
        40      31.59          0                     ;
        41      31.38          0                     ;
        42      32.67          0                     ;
        43      33.50          0                     ;
        44      33.57          0                     ;
        45      33.77          0                     ;
        46      34.14          0                     ;
        47      33.68          0                     ;
        48      33.71          0                     ;
        49      31.68          0                     ;
        50      33.34          0                     ;
        51      32.83          0                     ;
        52      32.78          0                     ;
        53      39.28          0                     ;
        54      37.12          0                     ;
        55      36.48          0                     ;
        56      36.42          0                     ;
        57      36.13          0                     ;
        58      36.05          0                     ;
        59      36.77          0                     ;
        60      35.48          0                     ;
        61      35.05          0                     ;
        62      35.10          0                     ;
        63      37.95          0                     ;
        64      38.44          0                     ;
        65      37.81          0                     ;
        66      38.22          0                     ;
        67      38.73          0                     ;
        68      38.95          0                     ;
        69      39.70          0                     ;
        70      40.59          0                     ;
        71      40.81          0                     ;
        72      41.06          0                     ;
        73      41.45          0                     ;
        74      41.83          0                     ;
        75      41.44          0                     ;
        76      41.09          0                     ;
        77      40.74          0                     ;
        78      38.60          0                     ;
        79      36.91          0                     ;
        80      36.75          0                     ;
        81      36.81          0                     ;
        82      37.05          0                     ;
        83      35.88          0                     ;
        84      36.45          0                     ;
        85      36.16          0                     ;
        86      34.99          0                     ;
        87      35.61          0                     ;
        88      34.89          0                     ;
        89      35.59          0                     ;
        90      35.70          0                     ;
        91      35.20          0                     ;
        92      35.64          0                     ;
        93      35.93          0                     ;
        94      37.64          0                     ;
        95      37.17          0                     ;
        96      37.10          0                     ;
        97      36.97          0                     ;
        98      37.00          0                     ;
        99      36.74          0                     ;
       100      34.78          0                     ;
       101      34.26          0                     ;
       102      33.66          0                     ;
       103      33.78          0                     ;
       104      33.75          0                     ;
       105      33.38          0                     ;
       106      34.85          0                     ;
       107      34.27          0                     ;
       108      34.30          0                     ;
       109      33.95          0                     ;
       110      33.92          0                     ;
       111      32.32          0                     ;
       112      34.76          0                     ;
       113      34.21          0                     ;
       114      34.92          0                     ;
       115      32.96          0                     ;
       116      30.69          0                     ;
       117      30.59          0                     ;
       118      30.73          0                     ;
       119      30.70          0                     ;
       120      31.02          0                     ;
       121      31.03          0                     ;
       122      31.75          0                     ;
       123      32.00          0                     ;
       124      32.05          0                     ;
       125      32.10          0                     ;
       126      33.76          0                     ;
       127      32.27          0                     ;
       128      31.86          0                     ;
       129      32.42          0                     ;
       130      33.00          0                     ;
       131      33.63          0                     ;
       132      36.37          0                     ;
       133      35.69          0                     ;
       134      35.52          0                     ;
       135      35.56          0                     ;
       136      35.92          0                     ;
       137      35.37          0                     ;
       138      35.06          0                     ;
       139      34.12          0                     ;
       140      39.35          0                     ;
       141      39.10          0                     ;
       142      39.84          0                     ;
       143      39.84          0                     ;
       144      39.45          0                     ;
       145      39.70          0                     ;
       146      37.95          0                     ;
       147      37.61          0                     ;
       148      37.95          0                     ;
       149      35.69          0                     ;
       150      35.32          0                     ;
       151      35.81          0                     ;
       152      35.81          0                     ;
       153      36.02          0                     ;
       154      38.25          0                     ;
       155      37.50          0                     ;
       156      37.54          0                     ;
       157      37.08          0                     ;
       158      36.76          0                     ;
       159      35.88          0                     ;
       160      35.77          0                     ;
       161      34.70          0                     ;
       162      35.37          0                     ;
       163      34.99          0                     ;
       164      35.93          0                     ;
       165      36.27          0                     ;
       166      32.67          0                     ;
       167      32.75          0                     ;
       168      32.88          0                     ;
       169      34.09          0                     ;
       170      36.09          0                     ;
       171      36.05          0                     ;
       172      36.04          0                     ;
       173      36.02          0                     ;
       174      31.76          0                     ;
       175      31.91          0                     ;
       176      31.80          0                     ;
       177      31.48          0                     ;
       178      31.12          0                     ;
       179      31.10          0                     ;
       180      31.19          0                     ;
       181      30.39          0                     ;
       182      30.55          0                     ;
       183      31.13          0                     ;
       184      31.81          0                     ;
       185      32.34          0                     ;
       186      32.83          0                     ;
       187      33.69          0                     ;
       188      33.17          0                     ;
       189      33.23          0                     ;
       190      33.34          0                     ;
       191      33.77          0                     ;
       192      33.77          0                     ;
       193      32.20          0                     ;
       194      34.41          0                     ;
       195      33.39          0                     ;
       196      34.34          0                     ;
       197      35.03          0                     ;
       198      34.44          0                     ;
       199      34.53          0                     ;
       200      34.94          0                     ;
       201      34.70          0                     ;
       202      36.70          0                     ;
       203      36.20          0                     ;
       204      35.03          0                     ;
       205      36.77          0                     ;
       206      36.20          0                     ;
       207      37.88          0                     ;
       208      38.03          0                     ;
       209      36.86          0                     ;
       210      37.24          0                     ;
       211      36.66          0                     ;
       212      36.49          0                     ;
       213      37.30          0                     ;
       214      40.30          0                     ;
       215      39.85          0                     ;
       216      41.00          0                     ;
       217      41.16          0                     ;
       218      35.05          0                     ;
       219      33.92          0                     ;
       220      32.14          0                     ;
       221      34.17          0                     ;
       222      35.10          0                     ;
       223      31.55          0                     ;
       224      31.75          0                     ;
       225      32.07          0                     ;
       226      31.94          0                     ;
       227      31.66          0                     ;
       228      31.04          0                     ;
       229      31.05          0                     ;
       230      38.49          0                     ;
       231      35.68          0                     ;
       232      35.39          0                     ;
       233      34.89          0                     ;
       234      34.86          0                     ;
       235      34.99          0                     ;
       236      32.54          0                     ;
       237      34.41          0                     ;
       238      36.16          0                     ;
       239      35.30          0                     ;
       240      35.17          0                     ;
       241      32.92          0                     ;
       242      33.07          0                     ;
       243      31.91          0                     ;
       244      32.00          0                     ;
       245      32.05          0                     ;
       246      32.05          0                     ;
       247      30.70          0                     ;
       248      31.33          0                     ;
       249      36.30          0                     ;
       250      35.83          0                     ;
       251      36.95          0                     ;
       252      38.01          0                     ;
       253      36.65          0                     ;
       254      36.91          0                     ;
       255      36.77          0                     ;
       256      31.50          0                     ;
       257      38.65          0                     ;
       258      39.54          0                     ;
       259      39.58          0                     ;
       260      39.58          0                     ;
       261      40.55          0                     ;
       262      40.79          0                     ;
       263      40.95          0                     ;
       264      37.76          0                     ;
       265      35.96          0                     ;
       266      36.81          0                     ;
       267      36.21          0                     ;
       268      35.61          0                     ;
  ANforNode1      39.49          0                     ;
  ANforNode2      39.62          0                     ;
  ANforNode3      38.70          0                     ;
  ANforNode4      37.25          0                     ;
  ANforNode5      36.27          0                     ;
  ANforNode6      35.95          0                     ;
  ANforNode7      35.95          0                     ;
  ANforNode8      36.09          0                     ;
  ANforNode9      36.18          0                     ;
 ANforNode10      37.00          0                     ;
 ANforNode11      36.50          0                     ;
 ANforNode12      37.39          0                     ;
 ANforNode13      38.07          0                     ;
 ANforNode14      37.02          0                     ;
 ANforNode15      41.26          0                     ;
 ANforNode16      39.35          0                     ;
 ANforNode17      39.53          0                     ;
 ANforNode18      36.59          0                     ;
 ANforNode20      37.72          0                     ;
 ANforNode21      37.31          0                     ;
 ANforNode22      37.62          0                     ;
 ANforNode23      36.99          0                     ;
 ANforNode24      35.20          0                     ;
 ANforNode25      35.11          0                     ;
 ANforNode26      34.65          0                     ;
 ANforNode27      34.33          0                     ;
 ANforNode28      36.15          0                     ;
 ANforNode29      36.30          0                     ;
 ANforNode30      36.10          0                     ;
 ANforNode31      36.14          0                     ;
 ANforNode32      35.80          0                     ;
 ANforNode33      33.26          0                     ;
 ANforNode34      33.34          0                     ;
 ANforNode35      33.51          0                     ;
 ANforNode36      32.70          0                     ;
 ANforNode37      32.65          0                     ;
 ANforNode38      32.56          0                     ;
 ANforNode39      33.56          0                     ;
 ANforNode40      31.59          0                     ;
 ANforNode41      31.38          0                     ;
 ANforNode42      32.67          0                     ;
 ANforNode43      33.50          0                     ;
 ANforNode44      33.57          0                     ;
 ANforNode45      33.77          0                     ;
 ANforNode46      34.14          0                     ;
 ANforNode47      33.68          0                     ;
 ANforNode48      33.71          0                     ;
 ANforNode49      31.68          0                     ;
 ANforNode50      33.34          0                     ;
 ANforNode51      32.83          0                     ;
 ANforNode52      32.78          0                     ;
 ANforNode53      39.28          0                     ;
 ANforNode54      37.12          0                     ;
 ANforNode55      36.48          0                     ;
 ANforNode56      36.42          0                     ;
 ANforNode57      36.13          0                     ;
 ANforNode58      36.05          0                     ;
 ANforNode59      36.77          0                     ;
 ANforNode60      35.48          0                     ;
 ANforNode61      35.05          0                     ;
 ANforNode62      35.10          0                     ;
 ANforNode63      37.95          0                     ;
 ANforNode64      38.44          0                     ;
 ANforNode65      37.81          0                     ;
 ANforNode66      38.22          0                     ;
 ANforNode67      38.73          0                     ;
 ANforNode68      38.95          0                     ;
 ANforNode69      39.70          0                     ;
 ANforNode70      40.59          0                     ;
 ANforNode71      40.81          0                     ;
 ANforNode72      41.06          0                     ;
 ANforNode73      41.45          0                     ;
 ANforNode74      41.83          0                     ;
 ANforNode76      41.09          0                     ;
 ANforNode77      40.74          0                     ;
 ANforNode78      38.60          0                     ;
 ANforNode79      36.91          0                     ;
 ANforNode80      36.75          0                     ;
 ANforNode81      36.81          0                     ;
 ANforNode82      37.05          0                     ;
 ANforNode83      35.88          0                     ;
 ANforNode84      36.45          0                     ;
 ANforNode85      36.16          0                     ;
 ANforNode86      34.99          0                     ;
 ANforNode87      35.61          0                     ;
 ANforNode88      34.89          0                     ;
 ANforNode89      35.59          0                     ;
 ANforNode90      35.70          0                     ;
 ANforNode91      35.20          0                     ;
 ANforNode92      35.64          0                     ;
 ANforNode93      35.93          0                     ;
 ANforNode94      37.64          0                     ;
 ANforNode95      37.17          0                     ;
 ANforNode96      37.10          0                     ;
 ANforNode97      36.97          0                     ;
 ANforNode98      37.00          0                     ;
 ANforNode99      36.74          0                     ;
ANforNode100      34.78          0                     ;
ANforNode101      34.26          0                     ;
ANforNode102      33.66          0                     ;
ANforNode103      33.78          0                     ;
ANforNode104      33.75          0                     ;
ANforNode105      33.38          0                     ;
ANforNode106      34.85          0                     ;
ANforNode107      34.27          0                     ;
ANforNode108      34.30          0                     ;
ANforNode109      33.95          0                     ;
ANforNode110      33.92          0                     ;
ANforNode111      32.32          0                     ;
ANforNode112      34.76          0                     ;
ANforNode113      34.21          0                     ;
ANforNode114      34.92          0                     ;
ANforNode115      32.96          0                     ;
ANforNode117      30.59          0                     ;
ANforNode120      31.02          0                     ;
ANforNode121      31.03          0                     ;
ANforNode122      31.75          0                     ;
ANforNode123      32.00          0                     ;
ANforNode125      32.10          0                     ;
ANforNode126      33.76          0                     ;
ANforNode127      32.27          0                     ;
ANforNode128      31.86          0                     ;
ANforNode129      32.42          0                     ;
ANforNode130      33.00          0                     ;
ANforNode131      33.63          0                     ;
ANforNode132      36.37          0                     ;
ANforNode133      35.69          0                     ;
ANforNode134      35.52          0                     ;
ANforNode135      35.56          0                     ;
ANforNode136      35.92          0                     ;
ANforNode137      35.37          0                     ;
ANforNode138      35.06          0                     ;
ANforNode139      34.12          0                     ;
ANforNode143      39.84          0                     ;
ANforNode144      39.45          0                     ;
ANforNode145      39.70          0                     ;
ANforNode146      37.95          0                     ;
ANforNode147      37.61          0                     ;
ANforNode148      37.95          0                     ;
ANforNode149      35.69          0                     ;
ANforNode150      35.32          0                     ;
ANforNode151      35.81          0                     ;
ANforNode152      35.81          0                     ;
ANforNode153      36.02          0                     ;
ANforNode154      38.25          0                     ;
ANforNode155      37.50          0                     ;
ANforNode156      37.54          0                     ;
ANforNode157      37.08          0                     ;
ANforNode158      36.76          0                     ;
ANforNode159      35.88          0                     ;
ANforNode160      35.77          0                     ;
ANforNode161      34.70          0                     ;
ANforNode162      35.37          0                     ;
ANforNode163      34.99          0                     ;
ANforNode164      35.93          0                     ;
ANforNode165      36.27          0                     ;
ANforNode166      32.67          0                     ;
ANforNode167      32.75          0                     ;
ANforNode168      32.88          0                     ;
ANforNode169      34.09          0                     ;
ANforNode170      36.09          0                     ;
ANforNode171      36.05          0                     ;
ANforNode172      36.04          0                     ;
ANforNode173      36.02          0                     ;
ANforNode175      31.91          0                     ;
ANforNode178      31.12          0                     ;
ANforNode182      30.55          0                     ;
ANforNode183      31.13          0                     ;
ANforNode184      31.81          0                     ;
ANforNode185      32.34          0                     ;
ANforNode186      32.83          0                     ;
ANforNode187      33.69          0                     ;
ANforNode188      33.17          0                     ;
ANforNode189      33.23          0                     ;
ANforNode190      33.34          0                     ;
ANforNode191      33.77          0                     ;
ANforNode192      33.77          0                     ;
ANforNode193      32.20          0                     ;
ANforNode194      34.41          0                     ;
ANforNode195      33.39          0                     ;
ANforNode196      34.34          0                     ;
ANforNode197      35.03          0                     ;
ANforNode198      34.44          0                     ;
ANforNode199      34.53          0                     ;
ANforNode200      34.94          0                     ;
ANforNode201      34.70          0                     ;
ANforNode202      36.70          0                     ;
ANforNode203      36.20          0                     ;
ANforNode204      35.03          0                     ;
ANforNode205      36.77          0                     ;
ANforNode206      36.20          0                     ;
ANforNode207      37.88          0                     ;
ANforNode208      38.03          0                     ;
ANforNode209      36.86          0                     ;
ANforNode210      37.24          0                     ;
ANforNode212      36.49          0                     ;
ANforNode213      37.30          0                     ;
ANforNode214      40.30          0                     ;
ANforNode216      41.00          0                     ;
ANforNode217      41.16          0                     ;
ANforNode218      35.05          0                     ;
ANforNode219      33.92          0                     ;
ANforNode220      32.14          0                     ;
ANforNode221      34.17          0                     ;
ANforNode222      35.10          0                     ;
ANforNode223      31.55          0                     ;
ANforNode224      31.75          0                     ;
ANforNode227      31.66          0                     ;
ANforNode228      31.04          0                     ;
ANforNode229      31.05          0                     ;
ANforNode230      38.49          0                     ;
ANforNode231      35.68          0                     ;
ANforNode232      35.39          0                     ;
ANforNode233      34.89          0                     ;
ANforNode234      34.86          0                     ;
ANforNode235      34.99          0                     ;
ANforNode236      32.54          0                     ;
ANforNode237      34.41          0                     ;
ANforNode238      36.16          0                     ;
ANforNode239      35.30          0                     ;
ANforNode240      35.17          0                     ;
ANforNode241      32.92          0                     ;
ANforNode242      33.07          0                     ;
ANforNode243      31.91          0                     ;
ANforNode244      32.00          0                     ;
ANforNode246      32.05          0                     ;
ANforNode247      30.70          0                     ;
ANforNode249      36.30          0                     ;
ANforNode250      35.83          0                     ;
ANforNode251      36.95          0                     ;
ANforNode252      38.01          0                     ;
ANforNode253      36.65          0                     ;
ANforNode255      36.77          0                     ;
ANforNode256      31.50          0                     ;
ANforNode257      38.65          0                     ;
ANforNode259      39.58          0                     ;
ANforNode260      39.58          0                     ;
ANforNode261      40.55          0                     ;
ANforNode262      40.79          0                     ;
ANforNode263      40.95          0                     ;
ANforNode264      37.76          0                     ;
ANforNode265      35.96          0                     ;
ANforNode266      36.81          0                     ;
ANforNode267      36.21          0                     ;
ANforNode268      35.61          0                     ;


[RESERVOIRS]
;ID              	Head        	Pattern
 269             	72.0000     	                	;
 270             	73.8000     	                	;
 271             	73.0000     	                	;
 272             	74.5000     	                	;
  AR1 39.49      ;
  AR2 39.62      ;
  AR3 38.70      ;
  AR4 37.25      ;
  AR5 36.27      ;
  AR6 35.95      ;
  AR7 35.95      ;
  AR8 36.09      ;
  AR9 36.18      ;
 AR10 37.00      ;
 AR11 36.50      ;
 AR12 37.39      ;
 AR13 38.07      ;
 AR14 37.02      ;
 AR15 41.26      ;
 AR16 39.35      ;
 AR17 39.53      ;
 AR18 36.59      ;
 AR20 37.72      ;
 AR21 37.31      ;
 AR22 37.62      ;
 AR23 36.99      ;
 AR24 35.20      ;
 AR25 35.11      ;
 AR26 34.65      ;
 AR27 34.33      ;
 AR28 36.15      ;
 AR29 36.30      ;
 AR30 36.10      ;
 AR31 36.14      ;
 AR32 35.80      ;
 AR33 33.26      ;