[TITLE]
Modena -- Bragalli, D'Ambrosio, Lee, Lodi, Toth (2008)
Originally presented by:
Bragalli, C., D'Ambrosio, C., Lee, J., Lodi, A., & Toth, P. (2012, June). On the optimal design of water distribution networks: a practical MINLP approach. Optimization and Engineering, 13 (2), 219-246.
Details of this specific conversion process are included in:
PLACEHOLDER

[JUNCTIONS]
;ID              	Elev        	Demand      	Pattern
  1 39.49 0       ;
  2 39.62 0       ;
  3 38.70 0       ;
  4 37.25 0       ;
  5 36.27 0       ;
  6 35.95 0       ;
  7 35.95 0       ;
  8 36.09 0       ;
  9 36.18 0       ;
 10 37.00 0       ;
 11 36.50 0       ;
 12 37.39 0       ;
 13 38.07 0       ;
 14 37.02 0       ;
 15 41.26 0       ;
 16 39.35 0       ;
 17 39.53 0       ;
 18 36.59 0       ;
 19 36.76 0       ;
 20 37.72 0       ;
 21 37.31 0       ;
 22 37.62 0       ;
 23 36.99 0       ;
 24 35.20 0       ;
 25 35.11 0       ;
 26 34.65 0       ;
 27 34.33 0       ;
 28 36.15 0       ;
 29 36.30 0       ;
 30 36.10 0       ;
 31 36.14 0       ;
 32 35.80 0       ;
 33 33.26 0       ;
 34 33.34 0       ;
 35 33.51 0       ;
 36 32.70 0       ;
 37 32.65 0       ;
 38 32.56 0       ;
 39 33.56 0       ;
 40 31.59 0       ;
 41 31.38 0       ;
 42 32.67 0       ;
 43 33.50 0       ;
 44 33.57 0       ;
 45 33.77 0       ;
 46 34.14 0       ;
 47 33.68 0       ;
 48 33.71 0       ;
 49 31.68 0       ;
 50 33.34 0       ;
 51 32.83 0       ;
 52 32.78 0       ;
 53 39.28 0       ;
 54 37.12 0       ;
 55 36.48 0       ;
 56 36.42 0       ;
 57 36.13 0       ;
 58 36.05 0       ;
 59 36.77 0       ;
 60 35.48 0       ;
 61 35.05 0       ;
 62 35.10 0       ;
 63 37.95 0       ;
 64 38.44 0       ;
 65 37.81 0       ;
 66 38.22 0       ;
 67 38.73 0       ;
 68 38.95 0       ;
 69 39.70 0       ;
 70 40.59 0       ;
 71 40.81 0       ;
 72 41.06 0       ;
 73 41.45 0       ;
 74 41.83 0       ;
 75 41.44 0       ;
 76 41.09 0       ;
 77 40.74 0       ;
 78 38.60 0       ;
 79 36.91 0       ;
 80 36.75 0       ;
 81 36.81 0       ;
 82 37.05 0       ;
 83 35.88 0       ;
 84 36.45 0       ;
 85 36.16 0       ;
 86 34.99 0       ;
 87 35.61 0       ;
 88 34.89 0       ;
 89 35.59 0       ;
 90 35.70 0       ;
 91 35.20 0       ;
 92 35.64 0       ;
 93 35.93 0       ;
 94 37.64 0       ;
 95 37.17 0       ;
 96 37.10 0       ;
 97 36.97 0       ;
 98 37.00 0       ;
 99 36.74 0       ;
100 34.78 0       ;
101 34.26 0       ;
102 33.66 0       ;
103 33.78 0       ;
104 33.75 0       ;
105 33.38 0       ;
106 34.85 0       ;
107 34.27 0       ;
108 34.30 0       ;
109 33.95 0       ;
110 33.92 0       ;
111 32.32 0       ;
112 34.76 0       ;
113 34.21 0       ;
114 34.92 0       ;
115 32.96 0       ;
116 30.69 0       ;
117 30.59 0       ;
118 30.73 0       ;
119 30.70 0       ;
120 31.02 0       ;
121 31.03 0       ;
122 31.75 0       ;
123 32.00 0       ;
124 32.05 0       ;
125 32.10 0       ;
126 33.76 0       ;
127 32.27 0       ;
128 31.86 0       ;
129 32.42 0       ;
130 33.00 0       ;
131 33.63 0       ;
132 36.37 0       ;
133 35.69 0       ;
134 35.52 0       ;
135 35.56 0       ;
136 35.92 0       ;
137 35.37 0       ;
138 35.06 0       ;
139 34.12 0       ;
140 39.35 0       ;
141 39.10 0       ;
142 39.84 0       ;
143 39.84 0       ;
144 39.45 0       ;
145 39.70 0       ;
146 37.95 0       ;
147 37.61 0       ;
148 37.95 0       ;
149 35.69 0       ;
150 35.32 0       ;
151 35.81 0       ;
152 35.81 0       ;
153 36.02 0       ;
154 38.25 0       ;
155 37.50 0       ;
156 37.54 0       ;
157 37.08 0       ;
158 36.76 0       ;
159 35.88 0       ;
160 35.77 0       ;
161 34.70 0       ;
162 35.37 0       ;
163 34.99 0       ;
164 35.93 0       ;
165 36.27 0       ;
166 32.67 0       ;
167 32.75 0       ;
168 32.88 0       ;
169 34.09 0       ;
170 36.09 0       ;
171 36.05 0       ;
172 36.04 0       ;
173 36.02 0       ;
174 31.76 0       ;
175 31.91 0       ;
176 31.80 0       ;
177 31.48 0       ;
178 31.12 0       ;
179 31.10 0       ;
180 31.19 0       ;
181 30.39 0       ;
182 30.55 0       ;
183 31.13 0       ;
184 31.81 0       ;
185 32.34 0       ;
186 32.83 0       ;
187 33.69 0       ;
188 33.17 0       ;
189 33.23 0       ;
190 33.34 0       ;
191 33.77 0       ;
192 33.77 0       ;
193 32.20 0       ;
194 34.41 0       ;
195 33.39 0       ;
196 34.34 0       ;
197 35.03 0       ;
198 34.44 0       ;
199 34.53 0       ;
200 34.94 0       ;
201 34.70 0       ;
202 36.70 0       ;
203 36.20 0       ;
204 35.03 0       ;
205 36.77 0       ;
206 36.20 0       ;
207 37.88 0       ;
208 38.03 0       ;
209 36.86 0       ;
210 37.24 0       ;
211 36.66 0       ;
212 36.49 0       ;
213 37.30 0       ;
214 40.30 0       ;
215 39.85 0       ;
216 41.00 0       ;
217 41.16 0       ;
218 35.05 0       ;
219 33.92 0       ;
220 32.14 0       ;
221 34.17 0       ;
222 35.10 0       ;
223 31.55 0       ;
224 31.75 0       ;
225 32.07 0       ;
226 31.94 0       ;
227 31.66 0       ;
228 31.04 0       ;
229 31.05 0       ;
230 38.49 0       ;
231 35.68 0       ;
232 35.39 0       ;
233 34.89 0       ;
234 34.86 0       ;
235 34.99 0       ;
236 32.54 0       ;
237 34.41 0       ;
238 36.16 0       ;
239 35.30 0       ;
240 35.17 0       ;
241 32.92 0       ;
242 33.07 0       ;
243 31.91 0       ;
244 32.00 0       ;
245 32.05 0       ;
246 32.05 0       ;
247 30.70 0       ;
248 31.33 0       ;
249 36.30 0       ;
250 35.83 0       ;
251 36.95 0       ;
252 38.01 0       ;
253 36.65 0       ;
254 36.91 0       ;
255 36.77 0       ;
256 31.50 0       ;
257 38.65 0       ;
258 39.54 0       ;
259 39.58 0       ;
260 39.58 0       ;
261 40.55 0       ;
262 40.79 0       ;
263 40.95 0       ;
264 37.76 0       ;
265 35.96 0       ;
266 36.81 0       ;
267 36.21 0       ;
268 35.61 0       ;


[RESERVOIRS]
;ID              	Head        	Pattern
 269             	72.0000     	                	;
 270             	73.8000     	                	;
 271             	73.0000     	                	;
 272             	74.5000     	                	;
  AR1 39.49      ;
  AR2 39.62      ;
  AR3 38.70      ;
  AR4 37.25      ;
  AR5 36.27      ;
  AR6 35.95      ;
  AR7 35.95      ;
  AR8 36.09      ;
  AR9 36.18      ;
 AR10 37.00      ;
 AR11 36.50      ;
 AR12 37.39      ;
 AR13 38.07      ;
 AR14 37.02      ;
 AR15 41.26      ;
 AR16 39.35      ;
 AR17 39.53      ;
 AR18 36.59      ;
 AR20 37.72      ;
 AR21 37.31      ;
 AR22 37.62      ;
 AR23 36.99      ;
 AR24 35.20      ;
 AR25 35.11      ;
 AR26 34.65      ;
 AR27 34.33      ;
 AR28 36.15      ;
 AR29 36.30      ;
 AR30 36.10      ;
 AR31 36.14      ;
 AR32 35.80      ;
 AR33 33.26      ;
 AR34 33.34      ;
 AR35 33.51      ;
 AR36 32.70      ;
 AR37 32.65      ;
 AR38 32.56      ;
 AR39 33.56      ;
 AR40 31.59      ;
 AR41 31.38      ;
 AR42 32.67      ;
 AR43 33.50      ;
 AR44 33.57      ;
 AR45 33.77      ;
 AR46 34.14      ;
 AR47 33.68      ;
 AR48 33.71      ;
 AR49 31.68      ;
 AR50 33.34      ;
 AR51 32.83      ;
 AR52 32.78      ;
 AR53 39.28      ;
 AR54 37.12      ;
 AR55 36.48      ;
 AR56 36.42      ;
 AR57 36.13      ;
 AR58 36.05      ;
 AR59 36.77      ;
 AR60 35.48      ;
 AR61 35.05      ;
 AR62 35.10      ;
 AR63 37.95      ;
 AR64 38.44      ;
 AR65 37.81      ;
 AR66 38.22      ;
 AR67 38.73      ;
 AR68 38.95      ;
 AR69 39.70      ;
 AR70 40.59      ;
 AR71 40.81      ;
 AR72 41.06      ;
 AR73 41.45      ;
 AR74 41.83      ;
 AR76 41.09      ;
 AR77 40.74      ;
 AR78 38.60      ;
 AR79 36.91      ;
 AR80 36.75      ;
 AR81 36.81      ;
 AR82 37.05      ;
 AR83 35.88      ;
 AR84 36.45      ;
 AR85 36.16      ;
 AR86 34.99      ;
 AR87 35.61      ;
 AR88 34.89      ;
 AR89 35.59      ;
 AR90 35.70      ;
 AR91 35.20      ;
 AR92 35.64      ;
 AR93 35.93      ;
 AR94 37.64      ;
 AR95 37.17      ;
 AR96 37.10      ;
 AR97 36.97      ;
 AR98 37.00      ;
 AR99 36.74      ;
AR100 34.78      ;
AR101 34.26      ;
AR102 33.66      ;
AR103 33.78      ;
AR104 33.75      ;
AR105 33.38      ;
AR106 34.85      ;
AR107 34.27      ;
AR108 34.30      ;
AR109 33.95      ;
AR110 33.92      ;
AR111 32.32      ;
AR112 34.76      ;
AR113 34.21      ;
AR114 34.92      ;
AR115 32.96      ;
AR117 30.59      ;
AR120 31.02      ;
AR121 31.03      ;
AR122 31.75      ;
AR123 32.00      ;
AR125 32.10      ;
AR126 33.76      ;
AR127 32.27      ;
AR128 31.86      ;
AR129 32.42      ;
AR130 33.00      ;
AR131 33.63      ;
AR132 36.37      ;
AR133 35.69      ;
AR134 35.52      ;
AR135 35.56      ;
AR136 35.92      ;
AR137 35.37      ;
AR138 35.06      ;
AR139 34.12      ;
AR143 39.84      ;
AR144 39.45      ;
AR145 39.70      ;
AR146 37.95      ;
AR147 37.61      ;
AR148 37.95      ;
AR149 35.69      ;
AR150 35.32      ;
AR151 35.81      ;
AR152 35.81      ;
AR153 36.02      ;
AR154 38.25      ;
AR155 37.50      ;
AR156 37.54      ;
AR157 37.08      ;
AR158 36.76      ;
AR159 35.88      ;
AR160 35.77      ;
AR161 34.70      ;
AR162 35.37      ;
AR163 34.99      ;
AR164 35.93      ;
AR165 36.27      ;
AR166 32.67      ;
AR167 32.75      ;
AR168 32.88      ;
AR169 34.09      ;
AR170 36.09      ;
AR171 36.05      ;
AR172 36.04      ;
AR173 36.02      ;
AR175 31.91      ;
AR178 31.12      ;
AR182 30.55      ;
AR183 31.13      ;
AR184 31.81      ;
AR185 32.34      ;
AR186 32.83      ;
AR187 33.69      ;
AR188 33.17      ;
AR189 33.23      ;
AR190 33.34      ;
AR191 33.77      ;
AR192 33.77      ;
AR193 32.20      ;
AR194 34.41      ;
AR195 33.39      ;
AR196 34.34      ;
AR197 35.03      ;
AR198 34.44      ;
AR199 34.53      ;
AR200 34.94      ;
AR201 34.70      ;
AR202 36.70      ;
AR203 36.20      ;
AR204 35.03      ;
AR205 36.77      ;
AR206 36.20      ;
AR207 37.88      ;
AR208 38.03      ;
AR209 36.86      ;
AR210 37.24      ;
AR212 36.49      ;
AR213 37.30      ;
AR214 40.30      ;
AR216 41.00      ;
AR217 41.16      ;
AR218 35.05      ;
AR219 33.92      ;
AR220 32.14      ;
AR221 34.17      ;
AR222 35.10      ;
AR223 31.55      ;
AR224 31.75      ;
AR227 31.66      ;
AR228 31.04      ;
AR229 31.05      ;
AR230 38.49      ;
AR231 35.68      ;
AR232 35.39      ;
AR233 34.89      ;
AR234 34.86      ;
AR235 34.99      ;
AR236 32.54      ;
AR237 34.41      ;
AR238 36.16      ;
AR239 35.30      ;
AR240 35.17      ;
AR241 32.92      ;
AR242 33.07      ;
AR243 31.91      ;
AR244 32.00      ;
AR246 32.05      ;
AR247 30.70      ;
AR249 36.30      ;
AR250 35.83      ;
AR251 36.95      ;
AR252 38.01      ;
AR253 36.65      ;
AR255 36.77      ;
AR256 31.50      ;
AR257 38.65      ;
AR259 39.58      ;
AR260 39.58      ;
AR261 40.55      ;
AR262 40.79      ;
AR263 40.95      ;
AR264 37.76      ;
AR265 35.96      ;
AR266 36.81      ;
AR267 36.21      ;
AR268 35.61      ;


[TANKS]
;ID              	Elevation   	InitLevel   	MinLevel    	MaxLevel    	Diameter    	MinVol      	VolCurve        	Overflow

[PIPES]
;ID              	Node1           	Node2           	Length      	Diameter    	Roughness   	MinorLoss   	Status
 1               	1               	16              	46.8400     	125.0000    	130.0000    	0.0000      	Open  	;
 2               	16              	2               	267.6800    	100.0000    	130.0000    	0.0000      	Open  	;
 3               	2               	3               	541.0700    	100.0000    	130.0000    	0.0000      	Open  	;
 4               	3               	4               	542.2900    	100.0000    	130.0000    	0.0000      	Open  	;
 5               	4               	5               	404.7200    	100.0000    	130.0000    	0.0000      	Open  	;
 6               	5               	206             	151.6700    	100.0000    	130.0000    	0.0000      	Open  	;
 7               	206             	6               	341.5700    	100.0000    	130.0000    	0.0000      	Open  	;
 8               	1               	140             	39.9100     	100.0000    	130.0000    	0.0000      	Open  	;
 9               	140             	143             	269.7300    	100.0000    	130.0000    	0.0000      	Open  	;
 10              	143             	145             	45.9200     	100.0000    	130.0000    	0.0000      	Open  	;
 11              	145             	146             	890.0900    	100.0000    	130.0000    	0.0000      	Open  	;
 12              	146             	148             	33.7900     	100.0000    	130.0000    	0.0000      	Open  	;
 13              	148             	63              	6.0300      	100.0000    	130.0000    	0.0000      	Open  	;
 14              	63              	149             	367.9200    	125.0000    	130.0000    	0.0000      	Open  	;
 15              	149             	150             	97.6600     	125.0000    	130.0000    	0.0000      	Open  	;
 16              	150             	60              	322.1900    	100.0000    	130.0000    	0.0000      	Open  	;
 17              	60              	61              	359.4800    	100.0000    	130.0000    	0.0000      	Open  	;
 18              	61              	218             	199.5900    	100.0000    	130.0000    	0.0000      	Open  	;
 19              	1               	141             	57.0600     	200.0000    	130.0000    	0.0000      	Open  	;
 20              	141             	142             	223.4100    	200.0000    	130.0000    	0.0000      	Open  	;
 21              	142             	144             	47.0300     	200.0000    	130.0000    	0.0000      	Open  	;
 22              	144             	257             	782.6700    	200.0000    	130.0000    	0.0000      	Open  	;
 23              	257             	53              	231.8700    	125.0000    	130.0000    	0.0000      	Open  	;
 24              	53              	251             	279.8400    	100.0000    	130.0000    	0.0000      	Open  	;
 25              	251             	57              	145.7000    	100.0000    	130.0000    	0.0000      	Open  	;
 26              	57              	58              	81.1000     	100.0000    	130.0000    	0.0000      	Open  	;
 27              	58              	59              	550.1700    	100.0000    	130.0000    	0.0000      	Open  	;
 28              	53              	230             	155.6300    	100.0000    	130.0000    	0.0000      	Open  	;
 29              	230             	252             	357.8100    	100.0000    	130.0000    	0.0000      	Open  	;
 30              	252             	3               	267.3200    	100.0000    	130.0000    	0.0000      	Open  	;
 31              	3               	13              	612.5000    	100.0000    	130.0000    	0.0000      	Open  	;
 32              	13              	12              	160.5000    	100.0000    	130.0000    	0.0000      	Open  	;
 33              	12              	11              	531.7100    	100.0000    	130.0000    	0.0000      	Open  	;
 34              	1               	258             	41.9100     	200.0000    	130.0000    	0.0000      	Open  	;
 35              	258             	259             	95.2200     	200.0000    	130.0000    	0.0000      	Open  	;
 36              	259             	260             	25.1300     	200.0000    	130.0000    	0.0000      	Open  	;
 37              	260             	215             	158.1200    	200.0000    	130.0000    	0.0000      	Open  	;
 38              	215             	261             	95.4000     	200.0000    	130.0000    	0.0000      	Open  	;
 39              	261             	77              	52.9200     	200.0000    	130.0000    	0.0000      	Open  	;
 40              	77              	262             	44.9200     	200.0000    	130.0000    	0.0000      	Open  	;
 41              	262             	216             	127.0500    	200.0000    	130.0000    	0.0000      	Open  	;
 42              	216             	263             	56.6800     	200.0000    	130.0000    	0.0000      	Open  	;
 43              	263             	76              	181.2900    	200.0000    	130.0000    	0.0000      	Open  	;
 44              	76              	217             	220.9000    	200.0000    	130.0000    	0.0000      	Open  	;
 45              	217             	75              	67.6500     	200.0000    	130.0000    	0.0000      	Open  	;
 46              	75              	74              	36.0600     	200.0000    	130.0000    	0.0000      	Open  	;
 47              	74              	73              	242.2900    	150.0000    	130.0000    	0.0000      	Open  	;
 48              	73              	72              	70.4500     	150.0000    	130.0000    	0.0000      	Open  	;
 49              	72              	71              	112.8300    	150.0000    	130.0000    	0.0000      	Open  	;
 50              	71              	70              	105.7200    	150.0000    	130.0000    	0.0000      	Open  	;
 51              	70              	69              	199.4200    	150.0000    	130.0000    	0.0000      	Open  	;
 52              	69              	68              	180.6400    	125.0000    	130.0000    	0.0000      	Open  	;
 53              	68              	78              	288.7600    	125.0000    	130.0000    	0.0000      	Open  	;
 54              	78              	154             	69.2600     	100.0000    	130.0000    	0.0000      	Open  	;
 55              	154             	79              	718.4500    	100.0000    	130.0000    	0.0000      	Open  	;
 56              	79              	155             	390.7800    	100.0000    	130.0000    	0.0000      	Open  	;
 57              	155             	156             	24.0000     	125.0000    	130.0000    	0.0000      	Open  	;
 58              	156             	95              	504.5200    	125.0000    	130.0000    	0.0000      	Open  	;
 59              	95              	96              	41.7800     	150.0000    	130.0000    	0.0000      	Open  	;
 60              	96              	97              	367.9300    	150.0000    	130.0000    	0.0000      	Open  	;
 61              	97              	157             	101.8600    	150.0000    	130.0000    	0.0000      	Open  	;
 62              	157             	98              	125.3600    	150.0000    	130.0000    	0.0000      	Open  	;
 63              	98              	158             	699.7600    	150.0000    	130.0000    	0.0000      	Open  	;
 64              	158             	136             	448.0500    	200.0000    	130.0000    	0.0000      	Open  	;
 65              	136             	159             	114.2900    	200.0000    	130.0000    	0.0000      	Open  	;
 66              	159             	160             	197.3000    	200.0000    	130.0000    	0.0000      	Open  	;
 67              	160             	137             	235.9800    	200.0000    	130.0000    	0.0000      	Open  	;
 68              	137             	135             	224.8700    	200.0000    	130.0000    	0.0000      	Open  	;
 69              	135             	222             	176.7300    	125.0000    	130.0000    	0.0000      	Open  	;
 70              	222             	161             	76.4400     	100.0000    	130.0000    	0.0000      	Open  	;
 71              	161             	131             	356.9400    	100.0000    	130.0000    	0.0000      	Open  	;
 72              	131             	242             	443.7900    	100.0000    	130.0000    	0.0000      	Open  	;
 73              	242             	130             	20.5500     	100.0000    	130.0000    	0.0000      	Open  	;
 74              	130             	241             	113.3300    	100.0000    	130.0000    	0.0000      	Open  	;
 75              	241             	168             	25.9600     	100.0000    	130.0000    	0.0000      	Open  	;
 76              	168             	167             	145.0400    	100.0000    	130.0000    	0.0000      	Open  	;
 77              	167             	166             	55.2400     	100.0000    	130.0000    	0.0000      	Open  	;
 78              	166             	129             	208.2200    	100.0000    	130.0000    	0.0000      	Open  	;
 79              	129             	125             	190.4300    	100.0000    	130.0000    	0.0000      	Open  	;
 80              	125             	246             	70.9800     	100.0000    	130.0000    	0.0000      	Open  	;
 81              	246             	245             	52.0400     	100.0000    	130.0000    	0.0000      	Open  	;
 82              	245             	124             	34.0300     	100.0000    	130.0000    	0.0000      	Open  	;
 83              	124             	225             	79.4700     	100.0000    	130.0000    	0.0000      	Open  	;
 84              	225             	226             	277.9900    	100.0000    	130.0000    	0.0000      	Open  	;
 85              	176             	227             	86.0300     	100.0000    	130.0000    	0.0000      	Open  	;
 86              	227             	177             	296.2500    	100.0000    	130.0000    	0.0000      	Open  	;
 87              	177             	180             	111.3000    	100.0000    	130.0000    	0.0000      	Open  	;
 88              	180             	178             	123.3700    	100.0000    	130.0000    	0.0000      	Open  	;
 89              	178             	179             	196.2700    	100.0000    	130.0000    	0.0000      	Open  	;
 90              	179             	228             	198.4600    	100.0000    	130.0000    	0.0000      	Open  	;
 91              	228             	229             	75.6200     	100.0000    	130.0000    	0.0000      	Open  	;
 92              	229             	121             	110.1400    	100.0000    	130.0000    	0.0000      	Open  	;
 93              	121             	118             	423.5700    	100.0000    	130.0000    	0.0000      	Open  	;
 94              	118             	117             	116.5700    	100.0000    	130.0000    	0.0000      	Open  	;
 95              	117             	181             	100.6100    	100.0000    	130.0000    	0.0000      	Open  	;
 96              	181             	182             	164.8400    	100.0000    	130.0000    	0.0000      	Open  	;
 97              	182             	116             	47.4900     	100.0000    	130.0000    	0.0000      	Open  	;
 98              	116             	247             	87.5400     	100.0000    	130.0000    	0.0000      	Open  	;
 99              	49              	184             	189.2700    	150.0000    	130.0000    	0.0000      	Open  	;
 100             	184             	41              	244.8000    	150.0000    	130.0000    	0.0000      	Open  	;
 101             	41              	248             	293.4700    	150.0000    	130.0000    	0.0000      	Open  	;
 102             	248             	40              	308.6400    	150.0000    	130.0000    	0.0000      	Open  	;
 103             	40              	39              	566.5700    	150.0000    	130.0000    	0.0000      	Open  	;
 104             	226             	176             	95.1400     	100.0000    	130.0000    	0.0000      	Open  	;
 105             	247             	183             	248.5500    	100.0000    	130.0000    	0.0000      	Open  	;
 106             	183             	49              	187.7800    	100.0000    	130.0000    	0.0000      	Open  	;
 107             	39              	38              	357.6700    	125.0000    	130.0000    	0.0000      	Open  	;
 108             	38              	37              	700.5700    	100.0000    	130.0000    	0.0000      	Open  	;
 109             	37              	193             	404.4600    	100.0000    	130.0000    	0.0000      	Open  	;
 110             	193             	36              	160.8600    	125.0000    	130.0000    	0.0000      	Open  	;
 111             	36              	194             	557.4200    	125.0000    	130.0000    	0.0000      	Open  	;
 112             	194             	27              	127.0200    	150.0000    	130.0000    	0.0000      	Open  	;
 113             	27              	26              	46.6600     	150.0000    	130.0000    	0.0000      	Open  	;
 114             	26              	195             	674.3200    	150.0000    	130.0000    	0.0000      	Open  	;
 115             	195             	33              	50.7600     	125.0000    	130.0000    	0.0000      	Open  	;
 116             	26              	196             	138.5400    	100.0000    	130.0000    	0.0000      	Open  	;
 117             	196             	25              	199.3300    	100.0000    	130.0000    	0.0000      	Open  	;
 118             	25              	232             	231.1200    	100.0000    	130.0000    	0.0000      	Open  	;
 119             	232             	24              	187.0600    	100.0000    	130.0000    	0.0000      	Open  	;
 120             	24              	231             	240.6400    	100.0000    	130.0000    	0.0000      	Open  	;
 121             	231             	7               	173.4400    	125.0000    	130.0000    	0.0000      	Open  	;
 122             	7               	6               	23.5800     	100.0000    	130.0000    	0.0000      	Open  	;
 123             	6               	28              	526.7400    	125.0000    	130.0000    	0.0000      	Open  	;
 124             	28              	249             	500.7200    	100.0000    	130.0000    	0.0000      	Open  	;
 125             	249             	29              	15.2900     	100.0000    	130.0000    	0.0000      	Open  	;
 126             	7               	8               	265.9200    	125.0000    	130.0000    	0.0000      	Open  	;
 127             	8               	23              	355.5100    	125.0000    	130.0000    	0.0000      	Open  	;
 128             	23              	207             	189.7800    	125.0000    	130.0000    	0.0000      	Open  	;
 129             	207             	208             	28.1800     	125.0000    	130.0000    	0.0000      	Open  	;
 130             	208             	22              	129.3400    	125.0000    	130.0000    	0.0000      	Open  	;
 131             	22              	21              	361.2400    	125.0000    	130.0000    	0.0000      	Open  	;
 132             	21              	264             	223.5200    	150.0000    	130.0000    	0.0000      	Open  	;
 133             	20              	210             	185.1700    	150.0000    	130.0000    	0.0000      	Open  	;
 134             	210             	209             	154.9500    	150.0000    	130.0000    	0.0000      	Open  	;
 135             	209             	19              	34.7100     	200.0000    	130.0000    	0.0000      	Open  	;
 136             	264             	20              	31.1400     	150.0000    	130.0000    	0.0000      	Open  	;
 137             	19              	253             	42.5200     	200.0000    	130.0000    	0.0000      	Open  	;
 138             	253             	18              	356.4500    	200.0000    	130.0000    	0.0000      	Open  	;
 139             	18              	211             	128.8200    	200.0000    	130.0000    	0.0000      	Open  	;
 140             	211             	212             	140.6600    	200.0000    	130.0000    	0.0000      	Open  	;
 141             	212             	11              	113.3200    	200.0000    	130.0000    	0.0000      	Open  	;
 142             	11              	10              	555.2300    	150.0000    	130.0000    	0.0000      	Open  	;
 143             	10              	4               	272.6800    	150.0000    	130.0000    	0.0000      	Open  	;
 144             	59              	203             	315.8800    	100.0000    	130.0000    	0.0000      	Open  	;
 145             	203             	202             	284.9300    	100.0000    	130.0000    	0.0000      	Open  	;
 146             	202             	31              	97.9300     	125.0000    	130.0000    	0.0000      	Open  	;
 147             	265             	32              	262.9400    	100.0000    	130.0000    	0.0000      	Open  	;
 148             	32              	33              	635.8200    	100.0000    	130.0000    	0.0000      	Open  	;
 149             	33              	34              	415.7300    	150.0000    	130.0000    	0.0000      	Open  	;
 150             	34              	35              	122.6000    	150.0000    	130.0000    	0.0000      	Open  	;
 151             	265             	31              	29.5600     	100.0000    	130.0000    	0.0000      	Open  	;
 152             	59              	205             	33.8000     	100.0000    	130.0000    	0.0000      	Open  	;
 153             	205             	88              	377.1200    	100.0000    	130.0000    	0.0000      	Open  	;
 154             	88              	89              	629.1700    	150.0000    	130.0000    	0.0000      	Open  	;
 155             	89              	90              	133.2800    	200.0000    	130.0000    	0.0000      	Open  	;
 156             	90              	91              	348.0500    	200.0000    	130.0000    	0.0000      	Open  	;
 157             	91              	234             	292.8900    	300.0000    	130.0000    	0.0000      	Open  	;
 158             	234             	109             	488.9900    	300.0000    	130.0000    	0.0000      	Open  	;
 159             	138             	235             	289.8800    	100.0000    	130.0000    	0.0000      	Open  	;
 160             	235             	110             	486.7200    	100.0000    	130.0000    	0.0000      	Open  	;
 161             	102             	106             	260.9200    	200.0000    	130.0000    	0.0000      	Open  	;
 162             	106             	91              	163.5800    	200.0000    	130.0000    	0.0000      	Open  	;
 163             	48              	108             	424.0700    	200.0000    	130.0000    	0.0000      	Open  	;
 164             	108             	109             	173.6600    	200.0000    	130.0000    	0.0000      	Open  	;
 165             	109             	110             	99.5500     	150.0000    	130.0000    	0.0000      	Open  	;
 166             	110             	111             	307.9200    	150.0000    	130.0000    	0.0000      	Open  	;
 167             	59              	204             	283.8400    	100.0000    	130.0000    	0.0000      	Open  	;
 168             	204             	200             	141.4900    	125.0000    	130.0000    	0.0000      	Open  	;