[TITLE]
Modena -- Bragalli, D'Ambrosio, Lee, Lodi, Toth (2008)
Originally presented by:
Bragalli, C., D'Ambrosio, C., Lee, J., Lodi, A., & Toth, P. (2012, June). On the optimal design of water distribution networks: a practical MINLP approach. Optimization and Engineering, 13 (2), 219-246.
Details of this specific conversion process are included in:
PLACEHOLDER

[JUNCTIONS]
;ID              	Elev        	Demand      	Pattern
  1 39.49 0       ;
  2 39.62 0       ;
  3 38.70 0       ;
  4 37.25 0       ;
  5 36.27 0       ;
  6 35.95 0       ;
  7 35.95 0       ;
  8 36.09 0       ;
  9 36.18 0       ;
 10 37.00 0       ;
 11 36.50 0       ;
 12 37.39 0       ;
 13 38.07 0       ;
 14 37.02 0       ;
 15 41.26 0       ;
 16 39.35 0       ;
 17 39.53 0       ;
 18 36.59 0       ;
 19 36.76 0       ;
 20 37.72 0       ;
 21 37.31 0       ;
 22 37.62 0       ;
 23 36.99 0       ;
 24 35.20 0       ;
 25 35.11 0       ;
 26 34.65 0       ;
 27 34.33 0       ;
 28 36.15 0       ;
 29 36.30 0       ;
 30 36.10 0       ;
 31 36.14 0       ;
 32 35.80 0       ;
 33 33.26 0       ;
 34 33.34 0       ;
 35 33.51 0       ;
 36 32.70 0       ;
 37 32.65 0       ;
 38 32.56 0       ;
 39 33.56 0       ;
 40 31.59 0       ;
 41 31.38 0       ;
 42 32.67 0       ;
 43 33.50 0       ;
 44 33.57 0       ;
 45 33.77 0       ;
 46 34.14 0       ;
 47 33.68 0       ;
 48 33.71 0       ;
 49 31.68 0       ;
 50 33.34 0       ;
 51 32.83 0       ;
 52 32.78 0       ;
 53 39.28 0       ;
 54 37.12 0       ;
 55 36.48 0       ;
 56 36.42 0       ;
 57 36.13 0       ;
 58 36.05 0       ;
 59 36.77 0       ;
 60 35.48 0       ;
 61 35.05 0       ;
 62 35.10 0       ;
 63 37.95 0       ;
 64 38.44 0       ;
 65 37.81 0       ;
 66 38.22 0       ;
 67 38.73 0       ;
 68 38.95 0       ;
 69 39.70 0       ;
 70 40.59 0       ;
 71 40.81 0       ;
 72 41.06 0       ;
 73 41.45 0       ;
 74 41.83 0       ;
 75 41.44 0       ;
 76 41.09 0       ;
 77 40.74 0       ;
 78 38.60 0       ;
 79 36.91 0       ;
 80 36.75 0       ;
 81 36.81 0       ;
 82 37.05 0       ;
 83 35.88 0       ;
 84 36.45 0       ;
 85 36.16 0       ;
 86 34.99 0       ;
 87 35.61 0       ;
 88 34.89 0       ;
 89 35.59 0       ;
 90 35.70 0       ;
 91 35.20 0       ;
 92 35.64 0       ;
 93 35.93 0       ;
 94 37.64 0       ;
 95 37.17 0       ;
 96 37.10 0       ;
 97 36.97 0       ;
 98 37.00 0       ;
 99 36.74 0       ;
100 34.78 0       ;
101 34.26 0       ;
102 33.66 0       ;
103 33.78 0       ;
104 33.75 0       ;
105 33.38 0       ;
106 34.85 0       ;
107 34.27 0       ;
108 34.30 0       ;
109 33.95 0       ;
110 33.92 0       ;
111 32.32 0       ;
112 34.76 0       ;
113 34.21 0       ;
114 34.92 0       ;
115 32.96 0       ;
116 30.69 0       ;
117 30.59 0       ;
118 30.73 0       ;
119 30.70 0       ;
120 31.02 0       ;
121 31.03 0       ;
122 31.75 0       ;
123 32.00 0       ;
124 32.05 0       ;
125 32.10 0       ;
126 33.76 0       ;
127 32.27 0       ;
128 31.86 0       ;
129 32.42 0       ;
130 33.00 0       ;
131 33.63 0       ;
132 36.37 0       ;
133 35.69 0       ;
134 35.52 0       ;
135 35.56 0       ;
136 35.92 0       ;
137 35.37 0       ;
138 35.06 0       ;
139 34.12 0       ;
140 39.35 0       ;
141 39.10 0       ;
142 39.84 0       ;
143 39.84 0       ;
144 39.45 0       ;
145 39.70 0       ;
146 37.95 0       ;
147 37.61 0       ;
148 37.95 0       ;
149 35.69 0       ;
150 35.32 0       ;
151 35.81 0       ;
152 35.81 0       ;
153 36.02 0       ;
154 38.25 0       ;
155 37.50 0       ;
156 37.54 0       ;
157 37.08 0       ;
158 36.76 0       ;
159 35.88 0       ;
160 35.77 0       ;
161 34.70 0       ;
162 35.37 0       ;
163 34.99 0       ;
164 35.93 0       ;
165 36.27 0       ;
166 32.67 0       ;
167 32.75 0       ;
168 32.88 0       ;
169 34.09 0       ;
170 36.09 0       ;
171 36.05 0       ;
172 36.04 0       ;
173 36.02 0       ;
174 31.76 0       ;
175 31.91 0       ;
176 31.80 0       ;
177 31.48 0       ;
178 31.12 0       ;
179 31.10 0       ;
180 31.19 0       ;
181 30.39 0       ;
182 30.55 0       ;
183 31.13 0       ;
184 31.81 0       ;
185 32.34 0       ;
186 32.83 0       ;
187 33.69 0       ;
188 33.17 0       ;
189 33.23 0       ;
190 33.34 0       ;
191 33.77 0       ;
192 33.77 0       ;
193 32.20 0       ;
194 34.41 0       ;
195 33.39 0       ;
196 34.34 0       ;
197 35.03 0       ;
198 34.44 0       ;
199 34.53 0       ;
200 34.94 0       ;
201 34.70 0       ;
202 36.70 0       ;
203 36.20 0       ;
204 35.03 0       ;
205 36.77 0       ;
206 36.20 0       ;
207 37.88 0       ;
208 38.03 0       ;
209 36.86 0       ;
210 37.24 0       ;
211 36.66 0       ;
212 36.49 0       ;
213 37.30 0       ;
214 40.30 0       ;
215 39.85 0       ;
216 41.00 0       ;
217 41.16 0       ;
218 35.05 0       ;
219 33.92 0       ;
220 32.14 0       ;
221 34.17 0       ;
222 35.10 0       ;
223 31.55 0       ;
224 31.75 0       ;
225 32.07 0       ;
226 31.94 0       ;
227 31.66 0       ;
228 31.04 0       ;
229 31.05 0       ;
230 38.49 0       ;
231 35.68 0       ;
232 35.39 0       ;
233 34.89 0       ;
234 34.86 0       ;
235 34.99 0       ;
236 32.54 0       ;
237 34.41 0       ;
238 36.16 0       ;
239 35.30 0       ;
240 35.17 0       ;
241 32.92 0       ;
242 33.07 0       ;
243 31.91 0       ;
244 32.00 0       ;
245 32.05 0       ;
246 32.05 0       ;
247 30.70 0       ;
248 31.33 0       ;
249 36.30 0       ;
250 35.83 0       ;
251 36.95 0       ;
252 38.01 0       ;
253 36.65 0       ;
254 36.91 0       ;
255 36.77 0       ;
256 31.50 0       ;
257 38.65 0       ;
258 39.54 0       ;
259 39.58 0       ;
260 39.58 0       ;
261 40.55 0       ;
262 40.79 0       ;
263 40.95 0       ;
264 37.76 0       ;
265 35.96 0       ;
266 36.81 0       ;
267 36.21 0       ;
268 35.61 0       ;


[RESERVOIRS]
;ID              	Head        	Pattern
 269             	72.0000     	                	;
 270             	73.8000     	                	;
 271             	73.0000     	                	;
 272             	74.5000     	                	;

[TANKS]
;ID              	Elevation   	InitLevel   	MinLevel    	MaxLevel    	Diameter    	MinVol      	VolCurve        	Overflow
  TankforNode1      39.49        0.0        0.0        1.0     1.0489        0.0                     ;
  TankforNode2      39.62        0.0        0.0        1.0     5.1561        0.0                     ;
  TankforNode3      38.70        0.0        0.0        1.0     9.6983        0.0                     ;
  TankforNode4      37.25        0.0        0.0        1.0     7.1136        0.0                     ;
  TankforNode5      36.27        0.0        0.0        1.0     4.1954        0.0                     ;
  TankforNode6      35.95        0.0        0.0        1.0     3.7816        0.0                     ;
  TankforNode7      35.95        0.0        0.0        1.0     4.3457        0.0                     ;
  TankforNode8      36.09        0.0        0.0        1.0     6.2345        0.0                     ;
  TankforNode9      36.18        0.0        0.0        1.0     4.6118        0.0                     ;
 TankforNode10      37.00        0.0        0.0        1.0     5.7128        0.0                     ;
 TankforNode11      36.50        0.0        0.0        1.0     2.8403        0.0                     ;
 TankforNode12      37.39        0.0        0.0        1.0     0.7417        0.0                     ;
 TankforNode13      38.07        0.0        0.0        1.0     3.2328        0.0                     ;
 TankforNode14      37.02        0.0        0.0        1.0     2.5692        0.0                     ;
 TankforNode15      41.26        0.0        0.0        1.0     7.7785        0.0                     ;
 TankforNode16      39.35        0.0        0.0        1.0     0.7417        0.0                     ;
 TankforNode17      39.53        0.0        0.0        1.0     6.2051        0.0                     ;
 TankforNode18      36.59        0.0        0.0        1.0     9.2533        0.0                     ;
 TankforNode20      37.72        0.0        0.0        1.0     5.2964        0.0                     ;
 TankforNode21      37.31        0.0        0.0        1.0     9.1936        0.0                     ;
 TankforNode22      37.62        0.0        0.0        1.0     4.4085        0.0                     ;
 TankforNode23      36.99        0.0        0.0        1.0     4.9195        0.0                     ;
 TankforNode24      35.20        0.0        0.0        1.0     7.0878        0.0                     ;
 TankforNode25      35.11        0.0        0.0        1.0     3.2890        0.0                     ;
 TankforNode26      34.65        0.0        0.0        1.0     2.8724        0.0                     ;
 TankforNode27      34.33        0.0        0.0        1.0     3.4255        0.0                     ;
 TankforNode28      36.15        0.0        0.0        1.0    11.4175        0.0                     ;
 TankforNode29      36.30        0.0        0.0        1.0     4.1293        0.0                     ;
 TankforNode30      36.10        0.0        0.0        1.0     0.8564        0.0                     ;
 TankforNode31      36.14        0.0        0.0        1.0     0.6055        0.0                     ;
 TankforNode32      35.80        0.0        0.0        1.0     7.3294        0.0                     ;
 TankforNode33      33.26        0.0        0.0        1.0     6.5500        0.0                     ;
 TankforNode34      33.34        0.0        0.0        1.0     5.9640        0.0                     ;
 TankforNode35      33.51        0.0        0.0        1.0     4.6710        0.0                     ;
 TankforNode36      32.70        0.0        0.0        1.0     5.0845        0.0                     ;
 TankforNode37      32.65        0.0        0.0        1.0     7.3917        0.0                     ;
 TankforNode38      32.56        0.0        0.0        1.0     6.2198        0.0                     ;
 TankforNode39      33.56        0.0        0.0        1.0    11.9126        0.0                     ;
 TankforNode40      31.59        0.0        0.0        1.0     8.8688        0.0                     ;
 TankforNode41      31.38        0.0        0.0        1.0    11.9434        0.0                     ;
 TankforNode42      32.67        0.0        0.0        1.0     8.2918        0.0                     ;
 TankforNode43      33.50        0.0        0.0        1.0     6.5919        0.0                     ;
 TankforNode44      33.57        0.0        0.0        1.0     5.1024        0.0                     ;
 TankforNode45      33.77        0.0        0.0        1.0     2.4222        0.0                     ;
 TankforNode46      34.14        0.0        0.0        1.0     4.5718        0.0                     ;
 TankforNode47      33.68        0.0        0.0        1.0     4.7489        0.0                     ;
 TankforNode48      33.71        0.0        0.0        1.0     5.0118        0.0                     ;
 TankforNode49      31.68        0.0        0.0        1.0     4.6513        0.0                     ;
 TankforNode50      33.34        0.0        0.0        1.0     5.7607        0.0                     ;
 TankforNode51      32.83        0.0        0.0        1.0     4.2172        0.0                     ;
 TankforNode52      32.78        0.0        0.0        1.0     3.1755        0.0                     ;
 TankforNode53      39.28        0.0        0.0        1.0     7.1265        0.0                     ;
 TankforNode54      37.12        0.0        0.0        1.0     3.4522        0.0                     ;
 TankforNode55      36.48        0.0        0.0        1.0     5.0301        0.0                     ;
 TankforNode56      36.42        0.0        0.0        1.0    12.3212        0.0                     ;
 TankforNode57      36.13        0.0        0.0        1.0     4.7295        0.0                     ;
 TankforNode58      36.05        0.0        0.0        1.0     8.4017        0.0                     ;
 TankforNode59      36.77        0.0        0.0        1.0     6.9309        0.0                     ;
 TankforNode60      35.48        0.0        0.0        1.0     7.1393        0.0                     ;
 TankforNode61      35.05        0.0        0.0        1.0     5.3481        0.0                     ;
 TankforNode62      35.10        0.0        0.0        1.0     4.6118        0.0                     ;
 TankforNode63      37.95        0.0        0.0        1.0     4.7295        0.0                     ;
 TankforNode64      38.44        0.0        0.0        1.0     7.3294        0.0                     ;
 TankforNode65      37.81        0.0        0.0        1.0     4.5517        0.0                     ;
 TankforNode66      38.22        0.0        0.0        1.0     4.5315        0.0                     ;
 TankforNode67      38.73        0.0        0.0        1.0     2.9666        0.0                     ;
 TankforNode68      38.95        0.0        0.0        1.0     5.0118        0.0                     ;
 TankforNode69      39.70        0.0        0.0        1.0     6.4371        0.0                     ;
 TankforNode70      40.59        0.0        0.0        1.0     4.9008        0.0                     ;
 TankforNode71      40.81        0.0        0.0        1.0     4.4085        0.0                     ;
 TankforNode72      41.06        0.0        0.0        1.0     2.6395        0.0                     ;
 TankforNode73      41.45        0.0        0.0        1.0     5.6806        0.0                     ;
 TankforNode74      41.83        0.0        0.0        1.0     3.2043        0.0                     ;
 TankforNode76      41.09        0.0        0.0        1.0     9.2235        0.0                     ;
 TankforNode77      40.74        0.0        0.0        1.0     4.3457        0.0                     ;
 TankforNode78      38.60        0.0        0.0        1.0     7.5147        0.0                     ;
 TankforNode79      36.91        0.0        0.0        1.0     5.4162        0.0                     ;
 TankforNode80      36.75        0.0        0.0        1.0     9.0732        0.0                     ;
 TankforNode81      36.81        0.0        0.0        1.0     4.7873        0.0                     ;
 TankforNode82      37.05        0.0        0.0        1.0     3.9939        0.0                     ;
 TankforNode83      35.88        0.0        0.0        1.0     3.6333        0.0                     ;
 TankforNode84      36.45        0.0        0.0        1.0     2.9973        0.0                     ;
 TankforNode85      36.16        0.0        0.0        1.0     8.4778        0.0                     ;
 TankforNode86      34.99        0.0        0.0        1.0     4.1514        0.0                     ;
 TankforNode87      35.61        0.0        0.0        1.0     7.8137        0.0                     ;
 TankforNode88      34.89        0.0        0.0        1.0     8.7439        0.0                     ;
 TankforNode89      35.59        0.0        0.0        1.0     5.1383        0.0                     ;
 TankforNode90      35.70        0.0        0.0        1.0     5.8083        0.0                     ;
 TankforNode91      35.20        0.0        0.0        1.0     6.0555        0.0                     ;
 TankforNode92      35.64        0.0        0.0        1.0     6.4085        0.0                     ;
 TankforNode93      35.93        0.0        0.0        1.0     1.9149        0.0                     ;
 TankforNode94      37.64        0.0        0.0        1.0     6.4513        0.0                     ;
 TankforNode95      37.17        0.0        0.0        1.0     5.1383        0.0                     ;
 TankforNode96      37.10        0.0        0.0        1.0     6.9967        0.0                     ;
 TankforNode97      36.97        0.0        0.0        1.0     3.3168        0.0                     ;
 TankforNode98      37.00        0.0        0.0        1.0     7.1136        0.0                     ;
 TankforNode99      36.74        0.0        0.0        1.0     0.9575        0.0                     ;
TankforNode100      34.78        0.0        0.0        1.0     6.1457        0.0                     ;
TankforNode101      34.26        0.0        0.0        1.0     7.6477        0.0                     ;
TankforNode102      33.66        0.0        0.0        1.0     9.2731        0.0                     ;
TankforNode103      33.78        0.0        0.0        1.0     5.5829        0.0                     ;
TankforNode104      33.75        0.0        0.0        1.0     0.6055        0.0                     ;
TankforNode105      33.38        0.0        0.0        1.0     1.3541        0.0                     ;
TankforNode106      34.85        0.0        0.0        1.0     4.5112        0.0                     ;
TankforNode107      34.27        0.0        0.0        1.0     4.3245        0.0                     ;
TankforNode108      34.30        0.0        0.0        1.0     4.0168        0.0                     ;
TankforNode109      33.95        0.0        0.0        1.0     6.5360        0.0                     ;
TankforNode110      33.92        0.0        0.0        1.0     2.3841        0.0                     ;
TankforNode111      32.32        0.0        0.0        1.0     2.8724        0.0                     ;
TankforNode112      34.76        0.0        0.0        1.0     7.3669        0.0                     ;
TankforNode113      34.21        0.0        0.0        1.0    12.2015        0.0                     ;
TankforNode114      34.92        0.0        0.0        1.0     5.6806        0.0                     ;
TankforNode115      32.96        0.0        0.0        1.0    10.4534        0.0                     ;
TankforNode117      30.59        0.0        0.0        1.0    10.7816        0.0                     ;
TankforNode120      31.02        0.0        0.0        1.0     7.4535        0.0                     ;
TankforNode121      31.03        0.0        0.0        1.0     5.8240        0.0                     ;
TankforNode122      31.75        0.0        0.0        1.0     5.6967        0.0                     ;
TankforNode123      32.00        0.0        0.0        1.0     5.2091        0.0                     ;
TankforNode125      32.10        0.0        0.0        1.0     4.9195        0.0                     ;
TankforNode126      33.76        0.0        0.0        1.0     6.4085        0.0                     ;
TankforNode127      32.27        0.0        0.0        1.0     4.8064        0.0                     ;
TankforNode128      31.86        0.0        0.0        1.0     9.9410        0.0                     ;
TankforNode129      32.42        0.0        0.0        1.0     4.2819        0.0                     ;
TankforNode130      33.00        0.0        0.0        1.0     5.4331        0.0                     ;
TankforNode131      33.63        0.0        0.0        1.0     9.2928        0.0                     ;
TankforNode132      36.37        0.0        0.0        1.0     6.9572        0.0                     ;
TankforNode133      35.69        0.0        0.0        1.0     6.2198        0.0                     ;
TankforNode134      35.52        0.0        0.0        1.0     5.2617        0.0                     ;
TankforNode135      35.56        0.0        0.0        1.0     3.9244        0.0                     ;
TankforNode136      35.92        0.0        0.0        1.0     4.3876        0.0                     ;
TankforNode137      35.37        0.0        0.0        1.0     4.6118        0.0                     ;
TankforNode138      35.06        0.0        0.0        1.0     6.7022        0.0                     ;
TankforNode139      34.12        0.0        0.0        1.0     5.5168        0.0                     ;
TankforNode143      39.84        0.0        0.0        1.0     3.8299        0.0                     ;
TankforNode144      39.45        0.0        0.0        1.0     2.4597        0.0                     ;
TankforNode145      39.70        0.0        0.0        1.0     2.4968        0.0                     ;
TankforNode146      37.95        0.0        0.0        1.0     4.3245        0.0                     ;
TankforNode147      37.61        0.0        0.0        1.0     4.7489        0.0                     ;
TankforNode148      37.95        0.0        0.0        1.0     1.2845        0.0                     ;
TankforNode149      35.69        0.0        0.0        1.0     2.8078        0.0                     ;
TankforNode150      35.32        0.0        0.0        1.0     5.3481        0.0                     ;
TankforNode151      35.81        0.0        0.0        1.0     3.8299        0.0                     ;
TankforNode152      35.81        0.0        0.0        1.0     5.0301        0.0                     ;
TankforNode153      36.02        0.0        0.0        1.0     3.1173        0.0                     ;
TankforNode154      38.25        0.0        0.0        1.0     3.2890        0.0                     ;
TankforNode155      37.50        0.0        0.0        1.0     6.5360        0.0                     ;
TankforNode156      37.54        0.0        0.0        1.0     0.7417        0.0                     ;
TankforNode157      37.08        0.0        0.0        1.0     2.3841        0.0                     ;
TankforNode158      36.76        0.0        0.0        1.0    12.4764        0.0                     ;
TankforNode159      35.88        0.0        0.0        1.0     2.4222        0.0                     ;
TankforNode160      35.77        0.0        0.0        1.0     1.9622        0.0                     ;
TankforNode161      34.70        0.0        0.0        1.0     0.6055        0.0                     ;
TankforNode162      35.37        0.0        0.0        1.0     4.7489        0.0                     ;
TankforNode163      34.99        0.0        0.0        1.0     4.2604        0.0                     ;
TankforNode164      35.93        0.0        0.0        1.0     3.1755        0.0                     ;
TankforNode165      36.27        0.0        0.0        1.0     3.7816        0.0                     ;
TankforNode166      32.67        0.0        0.0        1.0     2.2249        0.0                     ;
TankforNode167      32.75        0.0        0.0        1.0     2.2249        0.0                     ;
TankforNode168      32.88        0.0        0.0        1.0     1.1329        0.0                     ;
TankforNode169      34.09        0.0        0.0        1.0    13.1769        0.0                     ;
TankforNode170      36.09        0.0        0.0        1.0     6.9572        0.0                     ;
TankforNode171      36.05        0.0        0.0        1.0     4.3245        0.0                     ;
TankforNode172      36.04        0.0        0.0        1.0     4.0168        0.0                     ;
TankforNode173      36.02        0.0        0.0        1.0     2.9973        0.0                     ;
TankforNode175      31.91        0.0        0.0        1.0     4.5315        0.0                     ;
TankforNode178      31.12        0.0        0.0        1.0     0.4282        0.0                     ;
TankforNode182      30.55        0.0        0.0        1.0     0.4282        0.0                     ;
TankforNode183      31.13        0.0        0.0        1.0     5.8083        0.0                     ;
TankforNode184      31.81        0.0        0.0        1.0     0.8564        0.0                     ;
TankforNode185      32.34        0.0        0.0        1.0     5.5500        0.0                     ;
TankforNode186      32.83        0.0        0.0        1.0     6.5919        0.0                     ;
TankforNode187      33.69        0.0        0.0        1.0     1.2845        0.0                     ;
TankforNode188      33.17        0.0        0.0        1.0     4.7489        0.0                     ;
TankforNode189      33.23        0.0        0.0        1.0     8.4560        0.0                     ;
TankforNode190      33.34        0.0        0.0        1.0     4.6316        0.0                     ;
TankforNode191      33.77        0.0        0.0        1.0     5.5829        0.0                     ;
TankforNode192      33.77        0.0        0.0        1.0     6.2785        0.0                     ;
TankforNode193      32.20        0.0        0.0        1.0     8.5638        0.0                     ;
TankforNode194      34.41        0.0        0.0        1.0     9.0428        0.0                     ;
TankforNode195      33.39        0.0        0.0        1.0     0.9575        0.0                     ;
TankforNode196      34.34        0.0        0.0        1.0     0.4282        0.0                     ;
TankforNode197      35.03        0.0        0.0        1.0     8.6913        0.0                     ;
TankforNode198      34.44        0.0        0.0        1.0     2.6741        0.0                     ;
TankforNode199      34.53        0.0        0.0        1.0     1.6584        0.0                     ;
TankforNode200      34.94        0.0        0.0        1.0     5.7766        0.0                     ;
TankforNode201      34.70        0.0        0.0        1.0     7.9302        0.0                     ;
TankforNode202      36.70        0.0        0.0        1.0     3.3716        0.0                     ;
TankforNode203      36.20        0.0        0.0        1.0     8.7439        0.0                     ;
TankforNode204      35.03        0.0        0.0        1.0     6.4371        0.0                     ;
TankforNode205      36.77        0.0        0.0        1.0     4.3033        0.0                     ;
TankforNode206      36.20        0.0        0.0        1.0     3.1466        0.0                     ;
TankforNode207      37.88        0.0        0.0        1.0     3.7573        0.0                     ;
TankforNode208      38.03        0.0        0.0        1.0     2.4597        0.0                     ;
TankforNode209      36.86        0.0        0.0        1.0     4.5918        0.0                     ;
TankforNode210      37.24        0.0        0.0        1.0     5.2964        0.0                     ;
TankforNode212      36.49        0.0        0.0        1.0     2.3453        0.0                     ;
TankforNode213      37.30        0.0        0.0        1.0     2.4222        0.0                     ;
TankforNode214      40.30        0.0        0.0        1.0     3.2043        0.0                     ;
TankforNode216      41.00        0.0        0.0        1.0     1.8665        0.0                     ;
TankforNode217      41.16        0.0        0.0        1.0     5.1024        0.0                     ;
TankforNode218      35.05        0.0        0.0        1.0     3.2890        0.0                     ;
TankforNode219      33.92        0.0        0.0        1.0     5.2091        0.0                     ;
TankforNode220      32.14        0.0        0.0        1.0     4.1070        0.0                     ;
TankforNode221      34.17        0.0        0.0        1.0     2.4597        0.0                     ;
TankforNode222      35.10        0.0        0.0        1.0     1.0489        0.0                     ;
TankforNode223      31.55        0.0        0.0        1.0     2.9041        0.0                     ;
TankforNode224      31.75        0.0        0.0        1.0     3.6333        0.0                     ;
TankforNode227      31.66        0.0        0.0        1.0     1.9149        0.0                     ;
TankforNode228      31.04        0.0        0.0        1.0     1.2111        0.0                     ;
TankforNode229      31.05        0.0        0.0        1.0     4.8821        0.0                     ;
TankforNode230      38.49        0.0        0.0        1.0     4.4293        0.0                     ;
TankforNode231      35.68        0.0        0.0        1.0     4.3457        0.0                     ;
TankforNode232      35.39        0.0        0.0        1.0     0.7417        0.0                     ;
TankforNode233      34.89        0.0        0.0        1.0     4.5918        0.0                     ;
TankforNode234      34.86        0.0        0.0        1.0     5.1204        0.0                     ;
TankforNode235      34.99        0.0        0.0        1.0     9.4396        0.0                     ;
TankforNode236      32.54        0.0        0.0        1.0     9.2928        0.0                     ;
TankforNode237      34.41        0.0        0.0        1.0     4.9567        0.0                     ;
TankforNode238      36.16        0.0        0.0        1.0     5.8554        0.0                     ;
TankforNode239      35.30        0.0        0.0        1.0     3.8774        0.0                     ;
TankforNode240      35.17        0.0        0.0        1.0     4.1514        0.0                     ;
TankforNode241      32.92        0.0        0.0        1.0     1.2845        0.0                     ;
TankforNode242      33.07        0.0        0.0        1.0     4.8444        0.0                     ;
TankforNode243      31.91        0.0        0.0        1.0     2.8078        0.0                     ;
TankforNode244      32.00        0.0        0.0        1.0     3.0579        0.0                     ;
TankforNode246      32.05        0.0        0.0        1.0     0.4282        0.0                     ;
TankforNode247      30.70        0.0        0.0        1.0     0.4282        0.0                     ;
TankforNode249      36.30        0.0        0.0        1.0     5.6644        0.0                     ;
TankforNode250      35.83        0.0        0.0        1.0     4.3457        0.0                     ;
TankforNode251      36.95        0.0        0.0        1.0     4.8064        0.0                     ;
TankforNode252      38.01        0.0        0.0        1.0     4.9935        0.0                     ;