[TITLE]
Modena -- Bragalli, D'Ambrosio, Lee, Lodi, Toth (2008)
Originally presented by:
Bragalli, C., D'Ambrosio, C., Lee, J., Lodi, A., & Toth, P. (2012, June). On the optimal design of water distribution networks: a practical MINLP approach. Optimization and Engineering, 13 (2), 219-246.
Details of this specific conversion process are included in:
PLACEHOLDER

[JUNCTIONS]
;ID              	Elev        	Demand      	Pattern
 1               	39.49       	0.180008835 	                	;
 2               	39.62       	4.34999407  	                	;
 3               	38.7        	15.38995579 	                	;
 4               	37.25       	8.280058471 	                	;
 5               	36.27       	2.879982828 	                	;
 6               	35.95       	2.339968382 	                	;
 7               	35.95       	3.090008554 	                	;
 8               	36.09       	6.3599581   	                	;
 9               	36.18       	3.480020114 	                	;
 10              	37          	5.340002128 	                	;
 11              	36.5        	1.319985982 	                	;
 12              	37.39       	0.090004293 	                	;
 13              	38.07       	1.709995088 	                	;
 14              	37.02       	1.080010287 	                	;
 15              	41.26       	9.900033586 	                	;
 16              	39.35       	0.090004293 	                	;
 17              	39.53       	6.300025348 	                	;
 18              	36.59       	14.00997249 	                	;
 19              	36.76       	0           	                	;
 20              	37.72       	4.590039856 	                	;
 21              	37.31       	13.82995662 	                	;
 22              	37.62       	3.179985233 	                	;
 23              	36.99       	3.960028635 	                	;
 24              	35.2        	8.219955196 	                	;
 25              	35.11       	1.770003347 	                	;
 26              	34.65       	1.349991451 	                	;
 27              	34.33       	1.920018288 	                	;
 28              	36.15       	21.33001297 	                	;
 29              	36.3        	2.790015975 	                	;
 30              	36.1        	0.120001143 	                	;
 31              	36.14       	0.059994681 	                	;
 32              	35.8        	8.789940953 	                	;
 33              	33.26       	7.019988323 	                	;
 34              	33.34       	5.819954962 	                	;
 35              	33.51       	3.569993108 	                	;
 36              	32.7        	4.230034711 	                	;
 37              	32.65       	8.939995735 	                	;
 38              	32.56       	6.329956259 	                	;
 39              	33.56       	23.21991176 	                	;
 40              	31.59       	12.86997421 	                	;
 41              	31.38       	23.34003077 	                	;
 42              	32.67       	11.24996539 	                	;
 43              	33.5        	7.109997202 	                	;
 44              	33.57       	4.259963711 	                	;
 45              	33.77       	0.960006419 	                	;
 46              	34.14       	3.419984993 	                	;
 47              	33.68       	3.690038378 	                	;
 48              	33.71       	4.109953273 	                	;
 49              	31.68       	3.539962402 	                	;
 50              	33.34       	5.429964349 	                	;
 51              	32.83       	2.910023424 	                	;
 52              	32.78       	1.650001552 	                	;
 53              	39.28       	8.310057561 	                	;
 54              	37.12       	1.949970661 	                	;
 55              	36.48       	4.140025365 	                	;
 56              	36.42       	24.84007203 	                	;
 57              	36.13       	3.660042012 	                	;
 58              	36.05       	11.5500722  	                	;
 59              	36.77       	7.860004174 	                	;
 60              	35.48       	8.339976009 	                	;
 61              	35.05       	4.680038989 	                	;
 62              	35.1        	3.480020114 	                	;
 63              	37.95       	3.660042012 	                	;
 64              	38.44       	8.789940953 	                	;
 65              	37.81       	3.389991318 	                	;
 66              	38.22       	3.359958511 	                	;
 67              	38.73       	1.440012637 	                	;
 68              	38.95       	4.109953273 	                	;
 69              	39.7        	6.780010752 	                	;
 70              	40.59       	3.929970544 	                	;
 71              	40.81       	3.179985233 	                	;
 72              	41.06       	1.139992085 	                	;
 73              	41.45       	5.280051255 	                	;
 74              	41.83       	1.680015759 	                	;
 75              	41.44       	0           	                	;
 76              	41.09       	13.92008045 	                	;
 77              	40.74       	3.090008554 	                	;
 78              	38.6        	9.239939392 	                	;
 79              	36.91       	4.800032513 	                	;
 80              	36.75       	13.46998817 	                	;
 81              	36.81       	3.750036553 	                	;
 82              	37.05       	2.609986622 	                	;
 83              	35.88       	2.160014443 	                	;
 84              	36.45       	1.469985687 	                	;
 85              	36.16       	11.76007864 	                	;
 86              	34.99       	2.819977028 	                	;
 87              	35.61       	9.990032425 	                	;
 88              	34.89       	12.50991832 	                	;
 89              	35.59       	4.320041148 	                	;
 90              	35.7        	5.520019586 	                	;
 91              	35.2        	6.00004012  	                	;
 92              	35.64       	6.719941954 	                	;
 93              	35.93       	0.599984141 	                	;
 94              	37.64       	6.809962546 	                	;
 95              	37.17       	4.320041148 	                	;
 96              	37.1        	8.00999585  	                	;
 97              	36.97       	1.800019528 	                	;
 98              	37          	8.280058471 	                	;
 99              	36.74       	0.15000508  	                	;
 100             	34.78       	6.179965944 	                	;
 101             	34.26       	9.569957417 	                	;
 102             	33.66       	14.07000285 	                	;
 103             	33.78       	5.100013845 	                	;
 104             	33.75       	0.059994681 	                	;
 105             	33.38       	0.300002032 	                	;
 106             	34.85       	3.329974095 	                	;
 107             	34.27       	3.060030914 	                	;
 108             	34.3        	2.64002993  	                	;
 109             	33.95       	6.989948124 	                	;
 110             	33.92       	0.929994246 	                	;
 111             	32.32       	1.349991451 	                	;
 112             	34.76       	8.880044123 	                	;
 113             	34.21       	24.36006628 	                	;
 114             	34.92       	5.280051255 	                	;
 115             	32.96       	17.88000451 	                	;
 116             	30.69       	0           	                	;
 117             	30.59       	19.0200389  	                	;
 118             	30.73       	0           	                	;
 119             	30.7        	0           	                	;
 120             	31.02       	9.090053047 	                	;
 121             	31.03       	5.55001919  	                	;
 122             	31.75       	5.310038204 	                	;
 123             	32          	4.439981604 	                	;
 124             	32.05       	0           	                	;
 125             	32.1        	3.960028635 	                	;
 126             	33.76       	6.719941954 	                	;
 127             	32.27       	3.780035458 	                	;
 128             	31.86       	16.16992219 	                	;
 129             	32.42       	3.000028575 	                	;
 130             	33          	4.829960258 	                	;
 131             	33.63       	14.12998597 	                	;
 132             	36.37       	7.919962175 	                	;
 133             	35.69       	6.329956259 	                	;
 134             	35.52       	4.529995651 	                	;
 135             	35.56       	2.519998401 	                	;
 136             	35.92       	3.149987696 	                	;
 137             	35.37       	3.480020114 	                	;
 138             	35.06       	7.349995666 	                	;
 139             	34.12       	4.979951727 	                	;
 140             	39.35       	0           	                	;
 141             	39.1        	0           	                	;
 142             	39.84       	0           	                	;
 143             	39.84       	2.400008922 	                	;
 144             	39.45       	0.989983922 	                	;
 145             	39.7        	1.019997699 	                	;
 146             	37.95       	3.060030914 	                	;
 147             	37.61       	3.690038378 	                	;
 148             	37.95       	0.269990437 	                	;
 149             	35.69       	1.289999406 	                	;
 150             	35.32       	4.680038989 	                	;
 151             	35.81       	2.400008922 	                	;
 152             	35.81       	4.140025365 	                	;
 153             	36.02       	1.590018974 	                	;
 154             	38.25       	1.770003347 	                	;
 155             	37.5        	6.989948124 	                	;
 156             	37.54       	0.090004293 	                	;
 157             	37.08       	0.929994246 	                	;
 158             	36.76       	25.46999644 	                	;
 159             	35.88       	0.960006419 	                	;
 160             	35.77       	0.630018137 	                	;
 161             	34.7        	0.059994681 	                	;
 162             	35.37       	3.690038378 	                	;
 163             	34.99       	2.970008707 	                	;
 164             	35.93       	1.650001552 	                	;
 165             	36.27       	2.339968382 	                	;
 166             	32.67       	0.809996599 	                	;
 167             	32.75       	0.809996599 	                	;
 168             	32.88       	0.209997407 	                	;
 169             	34.09       	28.41010572 	                	;
 170             	36.09       	7.919962175 	                	;
 171             	36.05       	3.060030914 	                	;
 172             	36.04       	2.64002993  	                	;
 173             	36.02       	1.469985687 	                	;
 174             	31.76       	0           	                	;
 175             	31.91       	3.359958511 	                	;
 176             	31.8        	0           	                	;
 177             	31.48       	0           	                	;
 178             	31.12       	0.029996241 	                	;
 179             	31.1        	0           	                	;
 180             	31.19       	0           	                	;
 181             	30.39       	0           	                	;
 182             	30.55       	0.029996241 	                	;
 183             	31.13       	5.520019586 	                	;
 184             	31.81       	0.120001143 	                	;
 185             	32.34       	5.03996131  	                	;
 186             	32.83       	7.109997202 	                	;
 187             	33.69       	0.269990437 	                	;
 188             	33.17       	3.690038378 	                	;
 189             	33.23       	11.69992938 	                	;
 190             	33.34       	3.509971031 	                	;
 191             	33.77       	5.100013845 	                	;
 192             	33.77       	6.450033334 	                	;
 193             	32.2        	11.9999525  	                	;
 194             	34.41       	13.37996887 	                	;
 195             	33.39       	0.15000508  	                	;
 196             	34.34       	0.029996241 	                	;
 197             	35.03       	12.36003421 	                	;
 198             	34.44       	1.170009747 	                	;
 199             	34.53       	0.450004882 	                	;
 200             	34.94       	5.460045989 	                	;
 201             	34.7        	10.29002277 	                	;
 202             	36.7        	1.859980808 	                	;
 203             	36.2        	12.50991832 	                	;
 204             	35.03       	6.780010752 	                	;
 205             	36.77       	3.030036785 	                	;
 206             	36.2        	1.620020066 	                	;
 207             	37.88       	2.309984848 	                	;
 208             	38.03       	0.989983922 	                	;
 209             	36.86       	3.450024015 	                	;
 210             	37.24       	4.590039856 	                	;
 211             	36.66       	0           	                	;
 212             	36.49       	0.900015508 	                	;
 213             	37.3        	0.960006419 	                	;
 214             	40.3        	1.680015759 	                	;
 215             	39.85       	0           	                	;
 216             	41          	0.570013399 	                	;
 217             	41.16       	4.259963711 	                	;
 218             	35.05       	1.770003347 	                	;
 219             	33.92       	4.439981604 	                	;
 220             	32.14       	2.759982137 	                	;
 221             	34.17       	0.989983922 	                	;
 222             	35.1        	0.180008835 	                	;
 223             	31.55       	1.380004897 	                	;
 224             	31.75       	2.160014443 	                	;
 225             	32.07       	0           	                	;
 226             	31.94       	0           	                	;
 227             	31.66       	0.599984141 	                	;
 228             	31.04       	0.240001605 	                	;
 229             	31.05       	3.900026964 	                	;
 230             	38.49       	3.210041243 	                	;
 231             	35.68       	3.090008554 	                	;
 232             	35.39       	0.090004293 	                	;
 233             	34.89       	3.450024015 	                	;
 234             	34.86       	4.289998218 	                	;
 235             	34.99       	14.58000224 	                	;
 236             	32.54       	14.12998597 	                	;
 237             	34.41       	4.020020086 	                	;
 238             	36.16       	5.610041028 	                	;
 239             	35.3        	2.4600041   	                	;
 240             	35.17       	2.819977028 	                	;
 241             	32.92       	0.269990437 	                	;
 242             	33.07       	3.840025677 	                	;
 243             	31.91       	1.289999406 	                	;
 244             	32          	1.529991236 	                	;
 245             	32.05       	0           	                	;
 246             	32.05       	0.029996241 	                	;
 247             	30.7        	0.029996241 	                	;
 248             	31.33       	0           	                	;
 249             	36.3        	5.250042195 	                	;
 250             	35.83       	3.090008554 	                	;
 251             	36.95       	3.780035458 	                	;
 252             	38.01       	4.079990797 	                	;
 253             	36.65       	0.42000394  	                	;
 254             	36.91       	0           	                	;
 255             	36.77       	5.880056008 	                	;
 256             	31.5        	6.630039234 	                	;
 257             	38.65       	1.859980808 	                	;
 258             	39.54       	0           	                	;
 259             	39.58       	1.499981427 	                	;
 260             	39.58       	0.330009911 	                	;
 261             	40.55       	0.359989147 	                	;
 262             	40.79       	0.65998851  	                	;
 263             	40.95       	3.840025677 	                	;
 264             	37.76       	0.570013399 	                	;
 265             	35.96       	0.65998851  	                	;
 266             	36.81       	3.569993108 	                	;
 267             	36.21       	5.069995706 	                	;
 268             	35.61       	1.289999406 	                	;

[RESERVOIRS]
;ID              	Head        	Pattern
 269             	72.0000     	                	;
 270             	73.8000     	                	;
 271             	73.0000     	                	;
 272             	74.5000     	                	;

[TANKS]
;ID              	Elevation   	InitLevel   	MinLevel    	MaxLevel    	Diameter    	MinVol      	VolCurve        	Overflow

[PIPES]
;ID              	Node1           	Node2           	Length      	Diameter    	Roughness   	MinorLoss   	Status
 1               	1               	16              	46.8400     	125.0000    	130.0000    	0.0000      	Open  	;
 2               	16              	2               	267.6800    	100.0000    	130.0000    	0.0000      	Open  	;
 3               	2               	3               	541.0700    	100.0000    	130.0000    	0.0000      	Open  	;
 4               	3               	4               	542.2900    	100.0000    	130.0000    	0.0000      	Open  	;
 5               	4               	5               	404.7200    	100.0000    	130.0000    	0.0000      	Open  	;
 6               	5               	206             	151.6700    	100.0000    	130.0000    	0.0000      	Open  	;
 7               	206             	6               	341.5700    	100.0000    	130.0000    	0.0000      	Open  	;
 8               	1               	140             	39.9100     	100.0000    	130.0000    	0.0000      	Open  	;
 9               	140             	143             	269.7300    	100.0000    	130.0000    	0.0000      	Open  	;
 10              	143             	145             	45.9200     	100.0000    	130.0000    	0.0000      	Open  	;
 11              	145             	146             	890.0900    	100.0000    	130.0000    	0.0000      	Open  	;
 12              	146             	148             	33.7900     	100.0000    	130.0000    	0.0000      	Open  	;
 13              	148             	63              	6.0300      	100.0000    	130.0000    	0.0000      	Open  	;
 14              	63              	149             	367.9200    	125.0000    	130.0000    	0.0000      	Open  	;
 15              	149             	150             	97.6600     	125.0000    	130.0000    	0.0000      	Open  	;
 16              	150             	60              	322.1900    	100.0000    	130.0000    	0.0000      	Open  	;
 17              	60              	61              	359.4800    	100.0000    	130.0000    	0.0000      	Open  	;
 18              	61              	218             	199.5900    	100.0000    	130.0000    	0.0000      	Open  	;
 19              	1               	141             	57.0600     	200.0000    	130.0000    	0.0000      	Open  	;
 20              	141             	142             	223.4100    	200.0000    	130.0000    	0.0000      	Open  	;
 21              	142             	144             	47.0300     	200.0000    	130.0000    	0.0000      	Open  	;
 22              	144             	257             	782.6700    	200.0000    	130.0000    	0.0000      	Open  	;
 23              	257             	53              	231.8700    	125.0000    	130.0000    	0.0000      	Open  	;
 24              	53              	251             	279.8400    	100.0000    	130.0000    	0.0000      	Open  	;
 25              	251             	57              	145.7000    	100.0000    	130.0000    	0.0000      	Open  	;
 26              	57              	58              	81.1000     	100.0000    	130.0000    	0.0000      	Open  	;
 27              	58              	59              	550.1700    	100.0000    	130.0000    	0.0000      	Open  	;
 28              	53              	230             	155.6300    	100.0000    	130.0000    	0.0000      	Open  	;
 29              	230             	252             	357.8100    	100.0000    	130.0000    	0.0000      	Open  	;
 30              	252             	3               	267.3200    	100.0000    	130.0000    	0.0000      	Open  	;
 31              	3               	13              	612.5000    	100.0000    	130.0000    	0.0000      	Open  	;
 32              	13              	12              	160.5000    	100.0000    	130.0000    	0.0000      	Open  	;
 33              	12              	11              	531.7100    	100.0000    	130.0000    	0.0000      	Open  	;
 34              	1               	258             	41.9100     	200.0000    	130.0000    	0.0000      	Open  	;
 35              	258             	259             	95.2200     	200.0000    	130.0000    	0.0000      	Open  	;
 36              	259             	260             	25.1300     	200.0000    	130.0000    	0.0000      	Open  	;
 37              	260             	215             	158.1200    	200.0000    	130.0000    	0.0000      	Open  	;
 38              	215             	261             	95.4000     	200.0000    	130.0000    	0.0000      	Open  	;
 39              	261             	77              	52.9200     	200.0000    	130.0000    	0.0000      	Open  	;
 40              	77              	262             	44.9200     	200.0000    	130.0000    	0.0000      	Open  	;
 41              	262             	216             	127.0500    	200.0000    	130.0000    	0.0000      	Open  	;
 42              	216             	263             	56.6800     	200.0000    	130.0000    	0.0000      	Open  	;
 43              	263             	76              	181.2900    	200.0000    	130.0000    	0.0000      	Open  	;
 44              	76              	217             	220.9000    	200.0000    	130.0000    	0.0000      	Open  	;
 45              	217             	75              	67.6500     	200.0000    	130.0000    	0.0000      	Open  	;
 46              	75              	74              	36.0600     	200.0000    	130.0000    	0.0000      	Open  	;
 47              	74              	73              	242.2900    	150.0000    	130.0000    	0.0000      	Open  	;
 48              	73              	72              	70.4500     	150.0000    	130.0000    	0.0000      	Open  	;
 49              	72              	71              	112.8300    	150.0000    	130.0000    	0.0000      	Open  	;
 50              	71              	70              	105.7200    	150.0000    	130.0000    	0.0000      	Open  	;
 51              	70              	69              	199.4200    	150.0000    	130.0000    	0.0000      	Open  	;
 52              	69              	68              	180.6400    	125.0000    	130.0000    	0.0000      	Open  	;
 53              	68              	78              	288.7600    	125.0000    	130.0000    	0.0000      	Open  	;
 54              	78              	154             	69.2600     	100.0000    	130.0000    	0.0000      	Open  	;
 55              	154             	79              	718.4500    	100.0000    	130.0000    	0.0000      	Open  	;
 56              	79              	155             	390.7800    	100.0000    	130.0000    	0.0000      	Open  	;
 57              	155             	156             	24.0000     	125.0000    	130.0000    	0.0000      	Open  	;
 58              	156             	95              	504.5200    	125.0000    	130.0000    	0.0000      	Open  	;
 59              	95              	96              	41.7800     	150.0000    	130.0000    	0.0000      	Open  	;
 60              	96              	97              	367.9300    	150.0000    	130.0000    	0.0000      	Open  	;
 61              	97              	157             	101.8600    	150.0000    	130.0000    	0.0000      	Open  	;
 62              	157             	98              	125.3600    	150.0000    	130.0000    	0.0000      	Open  	;
 63              	98              	158             	699.7600    	150.0000    	130.0000    	0.0000      	Open  	;
 64              	158             	136             	448.0500    	200.0000    	130.0000    	0.0000      	Open  	;
 65              	136             	159             	114.2900    	200.0000    	130.0000    	0.0000      	Open  	;
 66              	159             	160             	197.3000    	200.0000    	130.0000    	0.0000      	Open  	;
 67              	160             	137             	235.9800    	200.0000    	130.0000    	0.0000      	Open  	;
 68              	137             	135             	224.8700    	200.0000    	130.0000    	0.0000      	Open  	;
 69              	135             	222             	176.7300    	125.0000    	130.0000    	0.0000      	Open  	;
 70              	222             	161             	76.4400     	100.0000    	130.0000    	0.0000      	Open  	;
 71              	161             	131             	356.9400    	100.0000    	130.0000    	0.0000      	Open  	;
 72              	131             	242             	443.7900    	100.0000    	130.0000    	0.0000      	Open  	;
 73              	242             	130             	20.5500     	100.0000    	130.0000    	0.0000      	Open  	;
 74              	130             	241             	113.3300    	100.0000    	130.0000    	0.0000      	Open  	;
 75              	241             	168             	25.9600     	100.0000    	130.0000    	0.0000      	Open  	;
 76              	168             	167             	145.0400    	100.0000    	130.0000    	0.0000      	Open  	;
 77              	167             	166             	55.2400     	100.0000    	130.0000    	0.0000      	Open  	;
 78              	166             	129             	208.2200    	100.0000    	130.0000    	0.0000      	Open  	;
 79              	129             	125             	190.4300    	100.0000    	130.0000    	0.0000      	Open  	;
 80              	125             	246             	70.9800     	100.0000    	130.0000    	0.0000      	Open  	;
 81              	246             	245             	52.0400     	100.0000    	130.0000    	0.0000      	Open  	;
 82              	245             	124             	34.0300     	100.0000    	130.0000    	0.0000      	Open  	;
 83              	124             	225             	79.4700     	100.0000    	130.0000    	0.0000      	Open  	;
 84              	225             	226             	277.9900    	100.0000    	130.0000    	0.0000      	Open  	;
 85              	176             	227             	86.0300     	100.0000    	130.0000    	0.0000      	Open  	;
 86              	227             	177             	296.2500    	100.0000    	130.0000    	0.0000      	Open  	;
 87              	177             	180             	111.3000    	100.0000    	130.0000    	0.0000      	Open  	;
 88              	180             	178             	123.3700    	100.0000    	130.0000    	0.0000      	Open  	;
 89              	178             	179             	196.2700    	100.0000    	130.0000    	0.0000      	Open  	;
 90              	179             	228             	198.4600    	100.0000    	130.0000    	0.0000      	Open  	;
 91              	228             	229             	75.6200     	100.0000    	130.0000    	0.0000      	Open  	;
 92              	229             	121             	110.1400    	100.0000    	130.0000    	0.0000      	Open  	;
 93              	121             	118             	423.5700    	100.0000    	130.0000    	0.0000      	Open  	;
 94              	118             	117             	116.5700    	100.0000    	130.0000    	0.0000      	Open  	;
 95              	117             	181             	100.6100    	100.0000    	130.0000    	0.0000      	Open  	;
 96              	181             	182             	164.8400    	100.0000    	130.0000    	0.0000      	Open  	;
 97              	182             	116             	47.4900     	100.0000    	130.0000    	0.0000      	Open  	;
 98              	116             	247             	87.5400     	100.0000    	130.0000    	0.0000      	Open  	;
 99              	49              	184             	189.2700    	150.0000    	130.0000    	0.0000      	Open  	;
 100             	184             	41              	244.8000    	150.0000    	130.0000    	0.0000      	Open  	;
 101             	41              	248             	293.4700    	150.0000    	130.0000    	0.0000      	Open  	;
 102             	248             	40              	308.6400    	150.0000    	130.0000    	0.0000      	Open  	;
 103             	40              	39              	566.5700    	150.0000    	130.0000    	0.0000      	Open  	;
 104             	226             	176             	95.1400     	100.0000    	130.0000    	0.0000      	Open  	;