[TITLE]
Modena -- Bragalli, D'Ambrosio, Lee, Lodi, Toth (2008)
Originally presented by:
Bragalli, C., D'Ambrosio, C., Lee, J., Lodi, A., & Toth, P. (2012, June). On the optimal design of water distribution networks: a practical MINLP approach. Optimization and Engineering, 13 (2), 219-246.
Details of this specific conversion process are included in:
PLACEHOLDER

[JUNCTIONS]
;ID              	Elev        	Demand      	Pattern
1	39.49	0.060002945	                	;
2	39.62	1.449998023	                	;
3	38.7	5.129985264	                	;
4	37.25	2.76001949	                	;
5	36.27	0.959994276	                	;
6	35.95	0.779989461	                	;
7	35.95	1.030002851	                	;
8	36.09	2.119986033	                	;
9	36.18	1.160006705	                	;
10	37	1.780000709	                	;
11	36.5	0.439995327	                	;
12	37.39	0.030001431	                	;
13	38.07	0.569998363	                	;
14	37.02	0.360003429	                	;
15	41.26	3.300011195	                	;
16	39.35	0.030001431	                	;
17	39.53	2.100008449	                	;
18	36.59	4.669990832	                	;
19	36.76	0	                	;
20	37.72	1.530013285	                	;
21	37.31	4.60998554	                	;
22	37.62	1.059995078	                	;
23	36.99	1.320009545	                	;
24	35.2	2.739985065	                	;
25	35.11	0.590001116	                	;
26	34.65	0.44999715	                	;
27	34.33	0.640006096	                	;
28	36.15	7.110004324	                	;
29	36.3	0.930005325	                	;
30	36.1	0.040000381	                	;
31	36.14	0.019998227	                	;
32	35.8	2.929980318	                	;
33	33.26	2.339996108	                	;
34	33.34	1.939984987	                	;
35	33.51	1.189997703	                	;
36	32.7	1.41001157	                	;
37	32.65	2.979998578	                	;
38	32.56	2.10998542	                	;
39	33.56	7.739970587	                	;
40	31.59	4.289991402	                	;
41	31.38	7.780010258	                	;
42	32.67	3.749988462	                	;
43	33.5	2.369999067	                	;
44	33.57	1.419987904	                	;
45	33.77	0.32000214	                	;
46	34.14	1.139994998	                	;
47	33.68	1.230012793	                	;
48	33.71	1.369984424	                	;
49	31.68	1.179987467	                	;
50	33.34	1.809988116	                	;
51	32.83	0.970007808	                	;
52	32.78	0.550000517	                	;
53	39.28	2.770019187	                	;
54	37.12	0.64999022	                	;
55	36.48	1.380008455	                	;
56	36.42	8.280024009	                	;
57	36.13	1.220014004	                	;
58	36.05	3.850024067	                	;
59	36.77	2.620001391	                	;
60	35.48	2.779992003	                	;
61	35.05	1.560012996	                	;
62	35.1	1.160006705	                	;
63	37.95	1.220014004	                	;
64	38.44	2.929980318	                	;
65	37.81	1.129997106	                	;
66	38.22	1.11998617	                	;
67	38.73	0.480004212	                	;
68	38.95	1.369984424	                	;
69	39.7	2.260003584	                	;
70	40.59	1.309990181	                	;
71	40.81	1.059995078	                	;
72	41.06	0.379997362	                	;
73	41.45	1.760017085	                	;
74	41.83	0.560005253	                	;
75	41.44	0	                	;
76	41.09	4.640026818	                	;
77	40.74	1.030002851	                	;
78	38.6	3.079979797	                	;
79	36.91	1.600010838	                	;
80	36.75	4.489996055	                	;
81	36.81	1.250012184	                	;
82	37.05	0.869995541	                	;
83	35.88	0.720004814	                	;
84	36.45	0.489995229	                	;
85	36.16	3.920026212	                	;
86	34.99	0.939992343	                	;
87	35.61	3.330010808	                	;
88	34.89	4.169972775	                	;
89	35.59	1.440013716	                	;
90	35.7	1.840006529	                	;
91	35.2	2.000013373	                	;
92	35.64	2.239980651	                	;
93	35.93	0.199994714	                	;
94	37.64	2.269987515	                	;
95	37.17	1.440013716	                	;
96	37.1	2.669998617	                	;
97	36.97	0.600006509	                	;
98	37	2.76001949	                	;
99	36.74	0.050001693	                	;
100	34.78	2.059988648	                	;
101	34.26	3.189985806	                	;
102	33.66	4.69000095	                	;
103	33.78	1.700004615	                	;
104	33.75	0.019998227	                	;
105	33.38	0.100000677	                	;
106	34.85	1.109991365	                	;
107	34.27	1.020010305	                	;
108	34.3	0.880009977	                	;
109	33.95	2.329982708	                	;
110	33.92	0.309998082	                	;
111	32.32	0.44999715	                	;
112	34.76	2.960014708	                	;
113	34.21	8.120022093	                	;
114	34.92	1.760017085	                	;
115	32.96	5.960001504	                	;
116	30.69	0	                	;
117	30.59	6.340012967	                	;
118	30.73	0	                	;
119	30.7	0	                	;
120	31.02	3.030017682	                	;
121	31.03	1.850006397	                	;
122	31.75	1.770012735	                	;
123	32	1.479993868	                	;
124	32.05	0	                	;
125	32.1	1.320009545	                	;
126	33.76	2.239980651	                	;
127	32.27	1.260011819	                	;
128	31.86	5.389974063	                	;
129	32.42	1.000009525	                	;
130	33	1.609986753	                	;
131	33.63	4.709995322	                	;
132	36.37	2.639987392	                	;
133	35.69	2.10998542	                	;
134	35.52	1.50999855	                	;
135	35.56	0.839999467	                	;
136	35.92	1.049995899	                	;
137	35.37	1.160006705	                	;
138	35.06	2.449998555	                	;
139	34.12	1.659983909	                	;
140	39.35	0	                	;
141	39.1	0	                	;
142	39.84	0	                	;
143	39.84	0.800002974	                	;
144	39.45	0.329994641	                	;
145	39.7	0.339999233	                	;
146	37.95	1.020010305	                	;
147	37.61	1.230012793	                	;
148	37.95	0.089996812	                	;
149	35.69	0.429999802	                	;
150	35.32	1.560012996	                	;
151	35.81	0.800002974	                	;
152	35.81	1.380008455	                	;
153	36.02	0.530006325	                	;
154	38.25	0.590001116	                	;
155	37.5	2.329982708	                	;
156	37.54	0.030001431	                	;
157	37.08	0.309998082	                	;
158	36.76	8.489998813	                	;
159	35.88	0.32000214	                	;
160	35.77	0.210006046	                	;
161	34.7	0.019998227	                	;
162	35.37	1.230012793	                	;
163	34.99	0.990002902	                	;
164	35.93	0.550000517	                	;
165	36.27	0.779989461	                	;
166	32.67	0.269998866	                	;
167	32.75	0.269998866	                	;
168	32.88	0.069999136	                	;
169	34.09	9.470035239	                	;
170	36.09	2.639987392	                	;
171	36.05	1.020010305	                	;
172	36.04	0.880009977	                	;
173	36.02	0.489995229	                	;
174	31.76	0	                	;
175	31.91	1.11998617	                	;
176	31.8	0	                	;
177	31.48	0	                	;
178	31.12	0.009998747	                	;
179	31.1	0	                	;
180	31.19	0	                	;
181	30.39	0	                	;
182	30.55	0.009998747	                	;
183	31.13	1.840006529	                	;
184	31.81	0.040000381	                	;
185	32.34	1.679987103	                	;
186	32.83	2.369999067	                	;
187	33.69	0.089996812	                	;
188	33.17	1.230012793	                	;
189	33.23	3.89997646	                	;
190	33.34	1.169990344	                	;
191	33.77	1.700004615	                	;
192	33.77	2.150011111	                	;
193	32.2	3.999984166	                	;
194	34.41	4.459989623	                	;
195	33.39	0.050001693	                	;
196	34.34	0.009998747	                	;
197	35.03	4.120011405	                	;
198	34.44	0.390003249	                	;
199	34.53	0.150001627	                	;
200	34.94	1.82001533	                	;
201	34.7	3.43000759	                	;
202	36.7	0.619993603	                	;
203	36.2	4.169972775	                	;
204	35.03	2.260003584	                	;
205	36.77	1.010012262	                	;
206	36.2	0.540006689	                	;
207	37.88	0.769994949	                	;
208	38.03	0.329994641	                	;
209	36.86	1.150008005	                	;
210	37.24	1.530013285	                	;
211	36.66	0	                	;
212	36.49	0.300005169	                	;
213	37.3	0.32000214	                	;
214	40.3	0.560005253	                	;
215	39.85	0	                	;
216	41	0.190004466	                	;
217	41.16	1.419987904	                	;
218	35.05	0.590001116	                	;
219	33.92	1.479993868	                	;
220	32.14	0.919994046	                	;
221	34.17	0.329994641	                	;
222	35.1	0.060002945	                	;
223	31.55	0.460001632	                	;
224	31.75	0.720004814	                	;
225	32.07	0	                	;
226	31.94	0	                	;
227	31.66	0.199994714	                	;
228	31.04	0.080000535	                	;
229	31.05	1.300008988	                	;
230	38.49	1.070013748	                	;
231	35.68	1.030002851	                	;
232	35.39	0.030001431	                	;
233	34.89	1.150008005	                	;
234	34.86	1.429999406	                	;
235	34.99	4.860000747	                	;
236	32.54	4.709995322	                	;
237	34.41	1.340006695	                	;
238	36.16	1.870013676	                	;
239	35.3	0.820001367	                	;
240	35.17	0.939992343	                	;
241	32.92	0.089996812	                	;
242	33.07	1.280008559	                	;
243	31.91	0.429999802	                	;
244	32	0.509997079	                	;
245	32.05	0	                	;
246	32.05	0.009998747	                	;
247	30.7	0.009998747	                	;
248	31.33	0	                	;
249	36.3	1.750014065	                	;
250	35.83	1.030002851	                	;
251	36.95	1.260011819	                	;
252	38.01	1.359996932	                	;
253	36.65	0.140001313	                	;
254	36.91	0	                	;
255	36.77	1.960018669	                	;
256	31.5	2.210013078	                	;
257	38.65	0.619993603	                	;
258	39.54	0	                	;
259	39.58	0.499993809	                	;
260	39.58	0.110003304	                	;
261	40.55	0.119996382	                	;
262	40.79	0.21999617	                	;
263	40.95	1.280008559	                	;
264	37.76	0.190004466	                	;
265	35.96	0.21999617	                	;
266	36.81	1.189997703	                	;
267	36.21	1.689998569	                	;
268	35.61	0.429999802	                	;

[RESERVOIRS]
;ID              	Head        	Pattern
 269             	72.0000     	                	;
 270             	73.8000     	                	;
 271             	73.0000     	                	;
 272             	74.5000     	                	;

[TANKS]
;ID              	Elevation   	InitLevel   	MinLevel    	MaxLevel    	Diameter    	MinVol      	VolCurve        	Overflow

[PIPES]
;ID              	Node1           	Node2           	Length      	Diameter    	Roughness   	MinorLoss   	Status
 1               	1               	16              	46.8400     	125.0000    	130.0000    	0.0000      	Open  	;
 2               	16              	2               	267.6800    	100.0000    	130.0000    	0.0000      	Open  	;
 3               	2               	3               	541.0700    	100.0000    	130.0000    	0.0000      	Open  	;
 4               	3               	4               	542.2900    	100.0000    	130.0000    	0.0000      	Open  	;
 5               	4               	5               	404.7200    	100.0000    	130.0000    	0.0000      	Open  	;
 6               	5               	206             	151.6700    	100.0000    	130.0000    	0.0000      	Open  	;
 7               	206             	6               	341.5700    	100.0000    	130.0000    	0.0000      	Open  	;
 8               	1               	140             	39.9100     	100.0000    	130.0000    	0.0000      	Open  	;
 9               	140             	143             	269.7300    	100.0000    	130.0000    	0.0000      	Open  	;
 10              	143             	145             	45.9200     	100.0000    	130.0000    	0.0000      	Open  	;
 11              	145             	146             	890.0900    	100.0000    	130.0000    	0.0000      	Open  	;
 12              	146             	148             	33.7900     	100.0000    	130.0000    	0.0000      	Open  	;
 13              	148             	63              	6.0300      	100.0000    	130.0000    	0.0000      	Open  	;
 14              	63              	149             	367.9200    	125.0000    	130.0000    	0.0000      	Open  	;
 15              	149             	150             	97.6600     	125.0000    	130.0000    	0.0000      	Open  	;
 16              	150             	60              	322.1900    	100.0000    	130.0000    	0.0000      	Open  	;
 17              	60              	61              	359.4800    	100.0000    	130.0000    	0.0000      	Open  	;
 18              	61              	218             	199.5900    	100.0000    	130.0000    	0.0000      	Open  	;
 19              	1               	141             	57.0600     	200.0000    	130.0000    	0.0000      	Open  	;
 20              	141             	142             	223.4100    	200.0000    	130.0000    	0.0000      	Open  	;
 21              	142             	144             	47.0300     	200.0000    	130.0000    	0.0000      	Open  	;
 22              	144             	257             	782.6700    	200.0000    	130.0000    	0.0000      	Open  	;
 23              	257             	53              	231.8700    	125.0000    	130.0000    	0.0000      	Open  	;
 24              	53              	251             	279.8400    	100.0000    	130.0000    	0.0000      	Open  	;
 25              	251             	57              	145.7000    	100.0000    	130.0000    	0.0000      	Open  	;
 26              	57              	58              	81.1000     	100.0000    	130.0000    	0.0000      	Open  	;
 27              	58              	59              	550.1700    	100.0000    	130.0000    	0.0000      	Open  	;
 28              	53              	230             	155.6300    	100.0000    	130.0000    	0.0000      	Open  	;
 29              	230             	252             	357.8100    	100.0000    	130.0000    	0.0000      	Open  	;
 30              	252             	3               	267.3200    	100.0000    	130.0000    	0.0000      	Open  	;
 31              	3               	13              	612.5000    	100.0000    	130.0000    	0.0000      	Open  	;
 32              	13              	12              	160.5000    	100.0000    	130.0000    	0.0000      	Open  	;
 33              	12              	11              	531.7100    	100.0000    	130.0000    	0.0000      	Open  	;
 34              	1               	258             	41.9100     	200.0000    	130.0000    	0.0000      	Open  	;
 35              	258             	259             	95.2200     	200.0000    	130.0000    	0.0000      	Open  	;
 36              	259             	260             	25.1300     	200.0000    	130.0000    	0.0000      	Open  	;
 37              	260             	215             	158.1200    	200.0000    	130.0000    	0.0000      	Open  	;
 38              	215             	261             	95.4000     	200.0000    	130.0000    	0.0000      	Open  	;
 39              	261             	77              	52.9200     	200.0000    	130.0000    	0.0000      	Open  	;
 40              	77              	262             	44.9200     	200.0000    	130.0000    	0.0000      	Open  	;
 41              	262             	216             	127.0500    	200.0000    	130.0000    	0.0000      	Open  	;
 42              	216             	263             	56.6800     	200.0000    	130.0000    	0.0000      	Open  	;
 43              	263             	76              	181.2900    	200.0000    	130.0000    	0.0000      	Open  	;
 44              	76              	217             	220.9000    	200.0000    	130.0000    	0.0000      	Open  	;
 45              	217             	75              	67.6500     	200.0000    	130.0000    	0.0000      	Open  	;
 46              	75              	74              	36.0600     	200.0000    	130.0000    	0.0000      	Open  	;
 47              	74              	73              	242.2900    	150.0000    	130.0000    	0.0000      	Open  	;
 48              	73              	72              	70.4500     	150.0000    	130.0000    	0.0000      	Open  	;
 49              	72              	71              	112.8300    	150.0000    	130.0000    	0.0000      	Open  	;
 50              	71              	70              	105.7200    	150.0000    	130.0000    	0.0000      	Open  	;
 51              	70              	69              	199.4200    	150.0000    	130.0000    	0.0000      	Open  	;
 52              	69              	68              	180.6400    	125.0000    	130.0000    	0.0000      	Open  	;
 53              	68              	78              	288.7600    	125.0000    	130.0000    	0.0000      	Open  	;
 54              	78              	154             	69.2600     	100.0000    	130.0000    	0.0000      	Open  	;
 55              	154             	79              	718.4500    	100.0000    	130.0000    	0.0000      	Open  	;
 56              	79              	155             	390.7800    	100.0000    	130.0000    	0.0000      	Open  	;
 57              	155             	156             	24.0000     	125.0000    	130.0000    	0.0000      	Open  	;
 58              	156             	95              	504.5200    	125.0000    	130.0000    	0.0000      	Open  	;
 59              	95              	96              	41.7800     	150.0000    	130.0000    	0.0000      	Open  	;
 60              	96              	97              	367.9300    	150.0000    	130.0000    	0.0000      	Open  	;
 61              	97              	157             	101.8600    	150.0000    	130.0000    	0.0000      	Open  	;
 62              	157             	98              	125.3600    	150.0000    	130.0000    	0.0000      	Open  	;
 63              	98              	158             	699.7600    	150.0000    	130.0000    	0.0000      	Open  	;
 64              	158             	136             	448.0500    	200.0000    	130.0000    	0.0000      	Open  	;
 65              	136             	159             	114.2900    	200.0000    	130.0000    	0.0000      	Open  	;
 66              	159             	160             	197.3000    	200.0000    	130.0000    	0.0000      	Open  	;
 67              	160             	137             	235.9800    	200.0000    	130.0000    	0.0000      	Open  	;
 68              	137             	135             	224.8700    	200.0000    	130.0000    	0.0000      	Open  	;
 69              	135             	222             	176.7300    	125.0000    	130.0000    	0.0000      	Open  	;
 70              	222             	161             	76.4400     	100.0000    	130.0000    	0.0000      	Open  	;
 71              	161             	131             	356.9400    	100.0000    	130.0000    	0.0000      	Open  	;
 72              	131             	242             	443.7900    	100.0000    	130.0000    	0.0000      	Open  	;
 73              	242             	130             	20.5500     	100.0000    	130.0000    	0.0000      	Open  	;
 74              	130             	241             	113.3300    	100.0000    	130.0000    	0.0000      	Open  	;
 75              	241             	168             	25.9600     	100.0000    	130.0000    	0.0000      	Open  	;
 76              	168             	167             	145.0400    	100.0000    	130.0000    	0.0000      	Open  	;
 77              	167             	166             	55.2400     	100.0000    	130.0000    	0.0000      	Open  	;
 78              	166             	129             	208.2200    	100.0000    	130.0000    	0.0000      	Open  	;
 79              	129             	125             	190.4300    	100.0000    	130.0000    	0.0000      	Open  	;
 80              	125             	246             	70.9800     	100.0000    	130.0000    	0.0000      	Open  	;
 81              	246             	245             	52.0400     	100.0000    	130.0000    	0.0000      	Open  	;
 82              	245             	124             	34.0300     	100.0000    	130.0000    	0.0000      	Open  	;
 83              	124             	225             	79.4700     	100.0000    	130.0000    	0.0000      	Open  	;
 84              	225             	226             	277.9900    	100.0000    	130.0000    	0.0000      	Open  	;
 85              	176             	227             	86.0300     	100.0000    	130.0000    	0.0000      	Open  	;
 86              	227             	177             	296.2500    	100.0000    	130.0000    	0.0000      	Open  	;
 87              	177             	180             	111.3000    	100.0000    	130.0000    	0.0000      	Open  	;
 88              	180             	178             	123.3700    	100.0000    	130.0000    	0.0000      	Open  	;
 89              	178             	179             	196.2700    	100.0000    	130.0000    	0.0000      	Open  	;
 90              	179             	228             	198.4600    	100.0000    	130.0000    	0.0000      	Open  	;
 91              	228             	229             	75.6200     	100.0000    	130.0000    	0.0000      	Open  	;
 92              	229             	121             	110.1400    	100.0000    	130.0000    	0.0000      	Open  	;
 93              	121             	118             	423.5700    	100.0000    	130.0000    	0.0000      	Open  	;
 94              	118             	117             	116.5700    	100.0000    	130.0000    	0.0000      	Open  	;
 95              	117             	181             	100.6100    	100.0000    	130.0000    	0.0000      	Open  	;
 96              	181             	182             	164.8400    	100.0000    	130.0000    	0.0000      	Open  	;
 97              	182             	116             	47.4900     	100.0000    	130.0000    	0.0000      	Open  	;
 98              	116             	247             	87.5400     	100.0000    	130.0000    	0.0000      	Open  	;
 99              	49              	184             	189.2700    	150.0000    	130.0000    	0.0000      	Open  	;
 100             	184             	41              	244.8000    	150.0000    	130.0000    	0.0000      	Open  	;
 101             	41              	248             	293.4700    	150.0000    	130.0000    	0.0000      	Open  	;
 102             	248             	40              	308.6400    	150.0000    	130.0000    	0.0000      	Open  	;
 103             	40              	39              	566.5700    	150.0000    	130.0000    	0.0000      	Open  	;
 104             	226             	176             	95.1400     	100.0000    	130.0000    	0.0000      	Open  	;
 105             	247             	183             	248.5500    	100.0000    	130.0000    	0.0000      	Open  	;
 106             	183             	49              	187.7800    	100.0000    	130.0000    	0.0000      	Open  	;
 107             	39              	38              	357.6700    	125.0000    	130.0000    	0.0000      	Open  	;
 108             	38              	37              	700.5700    	100.0000    	130.0000    	0.0000      	Open  	;
 109             	37              	193             	404.4600    	100.0000    	130.0000    	0.0000      	Open  	;
 110             	193             	36              	160.8600    	125.0000    	130.0000    	0.0000      	Open  	;
 111             	36              	194             	557.4200    	125.0000    	130.0000    	0.0000      	Open  	;
 112             	194             	27              	127.0200    	150.0000    	130.0000    	0.0000      	Open  	;
 113             	27              	26              	46.6600     	150.0000    	130.0000    	0.0000      	Open  	;
 114             	26              	195             	674.3200    	150.0000    	130.0000    	0.0000      	Open  	;
 115             	195             	33              	50.7600     	125.0000    	130.0000    	0.0000      	Open  	;
 116             	26              	196             	138.5400    	100.0000    	130.0000    	0.0000      	Open  	;
 117             	196             	25              	199.3300    	100.0000    	130.0000    	0.0000      	Open  	;
 118             	25              	232             	231.1200    	100.0000    	130.0000    	0.0000      	Open  	;
 119             	232             	24              	187.0600    	100.0000    	130.0000    	0.0000      	Open  	;
 120             	24              	231             	240.6400    	100.0000    	130.0000    	0.0000      	Open  	;
 121             	231             	7               	173.4400    	125.0000    	130.0000    	0.0000      	Open  	;
 122             	7               	6               	23.5800     	100.0000    	130.0000    	0.0000      	Open  	;
 123             	6               	28              	526.7400    	125.0000    	130.0000    	0.0000      	Open  	;
 124             	28              	249             	500.7200    	100.0000    	130.0000    	0.0000      	Open  	;
 125             	249             	29              	15.2900     	100.0000    	130.0000    	0.0000      	Open  	;
 126             	7               	8               	265.9200    	125.0000    	130.0000    	0.0000      	Open  	;
 127             	8               	23              	355.5100    	125.0000    	130.0000    	0.0000      	Open  	;
 128             	23              	207             	189.7800    	125.0000    	130.0000    	0.0000      	Open  	;
 129             	207             	208             	28.1800     	125.0000    	130.0000    	0.0000      	Open  	;
 130             	208             	22              	129.3400    	125.0000    	130.0000    	0.0000      	Open  	;
 131             	22              	21              	361.2400    	125.0000    	130.0000    	0.0000      	Open  	;
 132             	21              	264             	223.5200    	150.0000    	130.0000    	0.0000      	Open  	;
 133             	20              	210             	185.1700    	150.0000    	130.0000    	0.0000      	Open  	;
 134             	210             	209             	154.9500    	150.0000    	130.0000    	0.0000      	Open  	;
 135             	209             	19              	34.7100     	200.0000    	130.0000    	0.0000      	Open  	;
 136             	264             	20              	31.1400     	150.0000    	130.0000    	0.0000      	Open  	;
 137             	19              	253             	42.5200     	200.0000    	130.0000    	0.0000      	Open  	;
 138             	253             	18              	356.4500    	200.0000    	130.0000    	0.0000      	Open  	;
 139             	18              	211             	128.8200    	200.0000    	130.0000    	0.0000      	Open  	;
 140             	211             	212             	140.6600    	200.0000    	130.0000    	0.0000      	Open  	;
 141             	212             	11              	113.3200    	200.0000    	130.0000    	0.0000      	Open  	;
 142             	11              	10              	555.2300    	150.0000    	130.0000    	0.0000      	Open  	;
 143             	10              	4               	272.6800    	150.0000    	130.0000    	0.0000      	Open  	;
 144             	59              	203             	315.8800    	100.0000    	130.0000    	0.0000      	Open  	;
 145             	203             	202             	284.9300    	100.0000    	130.0000    	0.0000      	Open  	;
 146             	202             	31              	97.9300     	125.0000    	130.0000    	0.0000      	Open  	;
 147             	265             	32              	262.9400    	100.0000    	130.0000    	0.0000      	Open  	;
 148             	32              	33              	635.8200    	100.0000    	130.0000    	0.0000      	Open  	;
 149             	33              	34              	415.7300    	150.0000    	130.0000    	0.0000      	Open  	;
 150             	34              	35              	122.6000    	150.0000    	130.0000    	0.0000      	Open  	;
 151             	265             	31              	29.5600     	100.0000    	130.0000    	0.0000      	Open  	;
 152             	59              	205             	33.8000     	100.0000    	130.0000    	0.0000      	Open  	;
 153             	205             	88              	377.1200    	100.0000    	130.0000    	0.0000      	Open  	;
 154             	88              	89              	629.1700    	150.0000    	130.0000    	0.0000      	Open  	;
 155             	89              	90              	133.2800    	200.0000    	130.0000    	0.0000      	Open  	;
 156             	90              	91              	348.0500    	200.0000    	130.0000    	0.0000      	Open  	;
 157             	91              	234             	292.8900    	300.0000    	130.0000    	0.0000      	Open  	;
 158             	234             	109             	488.9900    	300.0000    	130.0000    	0.0000      	Open  	;
 159             	138             	235             	289.8800    	100.0000    	130.0000    	0.0000      	Open  	;