[TITLE]
;;Project Title/Notes

[OPTIONS]
;;Option             Value
FLOW_UNITS           LPS
INFILTRATION         HORTON
FLOW_ROUTING         DYNWAVE
LINK_OFFSETS         DEPTH
MIN_SLOPE            0
ALLOW_PONDING        NO
SKIP_STEADY_STATE    NO

START_DATE           05/18/2022
START_TIME           00:00:00
REPORT_START_DATE    05/18/2022
REPORT_START_TIME    00:00:00
END_DATE             05/18/2022
END_TIME             04:00:00
SWEEP_START          01/01
SWEEP_END            12/31
DRY_DAYS             0
REPORT_STEP          00:00:10
WET_STEP             00:01:00
DRY_STEP             00:01:00
ROUTING_STEP         0:00:01
RULE_STEP            00:00:00

INERTIAL_DAMPING     PARTIAL
NORMAL_FLOW_LIMITED  BOTH
FORCE_MAIN_EQUATION  H-W
VARIABLE_STEP        0.00
LENGTHENING_STEP     0
MIN_SURFAREA         0.00000001
MAX_TRIALS           20
HEAD_TOLERANCE       0.000005
SYS_FLOW_TOL         5
LAT_FLOW_TOL         5
MINIMUM_STEP         0.01
THREADS              4

[FILES]
;;Interfacing Files


[EVAPORATION]
;;Data Source    Parameters
;;-------------- ----------------
CONSTANT         0.0
DRY_ONLY         NO

[JUNCTIONS]
;;Name           Elevation  MaxDepth   InitDepth  SurDepth   Aponded
;;-------------- ---------- ---------- ---------- ---------- ----------
         1  39.490000          0          0        100          0
         2  39.620000          0          0        100          0
         3  38.700000          0          0        100          0
         4  37.250000          0          0        100          0
         5  36.270000          0          0        100          0
         6  35.950000          0          0        100          0
         7  35.950000          0          0        100          0
         8  36.090000          0          0        100          0
         9  36.180000          0          0        100          0
        10  37.000000          0          0        100          0
        11  36.500000          0          0        100          0
        12  37.390000          0          0        100          0
        13  38.070000          0          0        100          0
        14  37.020000          0          0        100          0
        15  41.260000          0          0        100          0
        16  39.350000          0          0        100          0
        17  39.530000          0          0        100          0
        18  36.590000          0          0        100          0
        19  36.760000          0          0        100          0
        20  37.720000          0          0        100          0
        21  37.310000          0          0        100          0
        22  37.620000          0          0        100          0
        23  36.990000          0          0        100          0
        24  35.200000          0          0        100          0
        25  35.110000          0          0        100          0
        26  34.650000          0          0        100          0
        27  34.330000          0          0        100          0
        28  36.150000          0          0        100          0
        29  36.300000          0          0        100          0
        30  36.100000          0          0        100          0
        31  36.140000          0          0        100          0
        32  35.800000          0          0        100          0
        33  33.260000          0          0        100          0
        34  33.340000          0          0        100          0
        35  33.510000          0          0        100          0
        36  32.700000          0          0        100          0
        37  32.650000          0          0        100          0
        38  32.560000          0          0        100          0
        39  33.560000          0          0        100          0
        40  31.590000          0          0        100          0
        41  31.380000          0          0        100          0
        42  32.670000          0          0        100          0
        43  33.500000          0          0        100          0
        44  33.570000          0          0        100          0
        45  33.770000          0          0        100          0
        46  34.140000          0          0        100          0
        47  33.680000          0          0        100          0
        48  33.710000          0          0        100          0
        49  31.680000          0          0        100          0
        50  33.340000          0          0        100          0
        51  32.830000          0          0        100          0
        52  32.780000          0          0        100          0
        53  39.280000          0          0        100          0
        54  37.120000          0          0        100          0
        55  36.480000          0          0        100          0
        56  36.420000          0          0        100          0
        57  36.130000          0          0        100          0
        58  36.050000          0          0        100          0
        59  36.770000          0          0        100          0
        60  35.480000          0          0        100          0
        61  35.050000          0          0        100          0
        62  35.100000          0          0        100          0
        63  37.950000          0          0        100          0
        64  38.440000          0          0        100          0
        65  37.810000          0          0        100          0
        66  38.220000          0          0        100          0
        67  38.730000          0          0        100          0
        68  38.950000          0          0        100          0
        69  39.700000          0          0        100          0
        70  40.590000          0          0        100          0
        71  40.810000          0          0        100          0
        72  41.060000          0          0        100          0
        73  41.450000          0          0        100          0
        74  41.830000          0          0        100          0
        75  41.440000          0          0        100          0
        76  41.090000          0          0        100          0
        77  40.740000          0          0        100          0
        78  38.600000          0          0        100          0
        79  36.910000          0          0        100          0
        80  36.750000          0          0        100          0
        81  36.810000          0          0        100          0
        82  37.050000          0          0        100          0
        83  35.880000          0          0        100          0
        84  36.450000          0          0        100          0
        85  36.160000          0          0        100          0
        86  34.990000          0          0        100          0
        87  35.610000          0          0        100          0
        88  34.890000          0          0        100          0
        89  35.590000          0          0        100          0
        90  35.700000          0          0        100          0
        91  35.200000          0          0        100          0
        92  35.640000          0          0        100          0
        93  35.930000          0          0        100          0
        94  37.640000          0          0        100          0
        95  37.170000          0          0        100          0
        96  37.100000          0          0        100          0
        97  36.970000          0          0        100          0
        98  37.000000          0          0        100          0
        99  36.740000          0          0        100          0
       100  34.780000          0          0        100          0
       101  34.260000          0          0        100          0
       102  33.660000          0          0        100          0
       103  33.780000          0          0        100          0
       104  33.750000          0          0        100          0
       105  33.380000          0          0        100          0
       106  34.850000          0          0        100          0
       107  34.270000          0          0        100          0
       108  34.300000          0          0        100          0
       109  33.950000          0          0        100          0
       110  33.920000          0          0        100          0
       111  32.320000          0          0        100          0
       112  34.760000          0          0        100          0
       113  34.210000          0          0        100          0
       114  34.920000          0          0        100          0
       115  32.960000          0          0        100          0
       116  30.690000          0          0        100          0
       117  30.590000          0          0        100          0
       118  30.730000          0          0        100          0
       119  30.700000          0          0        100          0
       120  31.020000          0          0        100          0
       121  31.030000          0          0        100          0
       122  31.750000          0          0        100          0
       123  32.000000          0          0        100          0
       124  32.050000          0          0        100          0
       125  32.100000          0          0        100          0
       126  33.760000          0          0        100          0
       127  32.270000          0          0        100          0
       128  31.860000          0          0        100          0
       129  32.420000          0          0        100          0
       130  33.000000          0          0        100          0
       131  33.630000          0          0        100          0
       132  36.370000          0          0        100          0
       133  35.690000          0          0        100          0
       134  35.520000          0          0        100          0
       135  35.560000          0          0        100          0
       136  35.920000          0          0        100          0
       137  35.370000          0          0        100          0
       138  35.060000          0          0        100          0
       139  34.120000          0          0        100          0
       140  39.350000          0          0        100          0
       141  39.100000          0          0        100          0
       142  39.840000          0          0        100          0
       143  39.840000          0          0        100          0
       144  39.450000          0          0        100          0
       145  39.700000          0          0        100          0
       146  37.950000          0          0        100          0
       147  37.610000          0          0        100          0
       148  37.950000          0          0        100          0
       149  35.690000          0          0        100          0
       150  35.320000          0          0        100          0
       151  35.810000          0          0        100          0
       152  35.810000          0          0        100          0
       153  36.020000          0          0        100          0
       154  38.250000          0          0        100          0
       155  37.500000          0          0        100          0
       156  37.540000          0          0        100          0
       157  37.080000          0          0        100          0
       158  36.760000          0          0        100          0
       159  35.880000          0          0        100          0
       160  35.770000          0          0        100          0
       161  34.700000          0          0        100          0
       162  35.370000          0          0        100          0
       163  34.990000          0          0        100          0
       164  35.930000          0          0        100          0
       165  36.270000          0          0        100          0
       166  32.670000          0          0        100          0
       167  32.750000          0          0        100          0
       168  32.880000          0          0        100          0
       169  34.090000          0          0        100          0
       170  36.090000          0          0        100          0
       171  36.050000          0          0        100          0
       172  36.040000          0          0        100          0
       173  36.020000          0          0        100          0
       174  31.760000          0          0        100          0
       175  31.910000          0          0        100          0
       176  31.800000          0          0        100          0
       177  31.480000          0          0        100          0
       178  31.120000          0          0        100          0
       179  31.100000          0          0        100          0
       180  31.190000          0          0        100          0
       181  30.390000          0          0        100          0
       182  30.550000          0          0        100          0
       183  31.130000          0          0        100          0
       184  31.810000          0          0        100          0
       185  32.340000          0          0        100          0
       186  32.830000          0          0        100          0
       187  33.690000          0          0        100          0
       188  33.170000          0          0        100          0
       189  33.230000          0          0        100          0
       190  33.340000          0          0        100          0
       191  33.770000          0          0        100          0
       192  33.770000          0          0        100          0
       193  32.200000          0          0        100          0
       194  34.410000          0          0        100          0
       195  33.390000          0          0        100          0
       196  34.340000          0          0        100          0
       197  35.030000          0          0        100          0
       198  34.440000          0          0        100          0
       199  34.530000          0          0        100          0
       200  34.940000          0          0        100          0
       201  34.700000          0          0        100          0
       202  36.700000          0          0        100          0
       203  36.200000          0          0        100          0
       204  35.030000          0          0        100          0
       205  36.770000          0          0        100          0
       206  36.200000          0          0        100          0
       207  37.880000          0          0        100          0
       208  38.030000          0          0        100          0
       209  36.860000          0          0        100          0
       210  37.240000          0          0        100          0
       211  36.660000          0          0        100          0
       212  36.490000          0          0        100          0
       213  37.300000          0          0        100          0
       214  40.300000          0          0        100          0
       215  39.850000          0          0        100          0
       216  41.000000          0          0        100          0
       217  41.160000          0          0        100          0
       218  35.050000          0          0        100          0
       219  33.920000          0          0        100          0
       220  32.140000          0          0        100          0
       221  34.170000          0          0        100          0
       222  35.100000          0          0        100          0
       223  31.550000          0          0        100          0
       224  31.750000          0          0        100          0
       225  32.070000          0          0        100          0
       226  31.940000          0          0        100          0
       227  31.660000          0          0        100          0
       228  31.040000          0          0        100          0
       229  31.050000          0          0        100          0
       230  38.490000          0          0        100          0
       231  35.680000          0          0        100          0
       232  35.390000          0          0        100          0
       233  34.890000          0          0        100          0
       234  34.860000          0          0        100          0
       235  34.990000          0          0        100          0
       236  32.540000          0          0        100          0
       237  34.410000          0          0        100          0
       238  36.160000          0          0        100          0
       239  35.300000          0          0        100          0
       240  35.170000          0          0        100          0
       241  32.920000          0          0        100          0
       242  33.070000          0          0        100          0
       243  31.910000          0          0        100          0
       244  32.000000          0          0        100          0
       245  32.050000          0          0        100          0
       246  32.050000          0          0        100          0
       247  30.700000          0          0        100          0
       248  31.330000          0          0        100          0
       249  36.300000          0          0        100          0
       250  35.830000          0          0        100          0
       251  36.950000          0          0        100          0
       252  38.010000          0          0        100          0
       253  36.650000          0          0        100          0
       254  36.910000          0          0        100          0
       255  36.770000          0          0        100          0
       256  31.500000          0          0        100          0
       257  38.650000          0          0        100          0
       258  39.540000          0          0        100          0
       259  39.580000          0          0        100          0
       260  39.580000          0          0        100          0
       261  40.550000          0          0        100          0
       262  40.790000          0          0        100          0
       263  40.950000          0          0        100          0
       264  37.760000          0          0        100          0
       265  35.960000          0          0        100          0
       266  36.810000          0          0        100          0
       267  36.210000          0          0        100          0
       268  35.610000          0          0        100          0
    1-1-16  39.462000          0          0        100          0
    1-2-16  39.434000          0          0        100          0
    1-3-16  39.406000          0          0        100          0
    1-4-16  39.378000          0          0        100          0
    16-1-2  39.360000          0          0        100          0
    16-2-2  39.370000          0          0        100          0
    16-3-2  39.380000          0          0        100          0
    16-4-2  39.390000          0          0        100          0
    16-5-2  39.400000          0          0        100          0
    16-6-2  39.410000          0          0        100          0
    16-7-2  39.420000          0          0        100          0
    16-8-2  39.430000          0          0        100          0
    16-9-2  39.440000          0          0        100          0
   16-10-2  39.450000          0          0        100          0
   16-11-2  39.460000          0          0        100          0
   16-12-2  39.470000          0          0        100          0
   16-13-2  39.480000          0          0        100          0
   16-14-2  39.490000          0          0        100          0
   16-15-2  39.500000          0          0        100          0
   16-16-2  39.510000          0          0        100          0
   16-17-2  39.520000          0          0        100          0
   16-18-2  39.530000          0          0        100          0
   16-19-2  39.540000          0          0        100          0
   16-20-2  39.550000          0          0        100          0
   16-21-2  39.560000          0          0        100          0
   16-22-2  39.570000          0          0        100          0
   16-23-2  39.580000          0          0        100          0
   16-24-2  39.590000          0          0        100          0
   16-25-2  39.600000          0          0        100          0
   16-26-2  39.610000          0          0        100          0
     2-1-3  39.603273          0          0        100          0
     2-2-3  39.586545          0          0        100          0
     2-3-3  39.569818          0          0        100          0
     2-4-3  39.553091          0          0        100          0
     2-5-3  39.536364          0          0        100          0
     2-6-3  39.519636          0          0        100          0
     2-7-3  39.502909          0          0        100          0
     2-8-3  39.486182          0          0        100          0
     2-9-3  39.469455          0          0        100          0
    2-10-3  39.452727          0          0        100          0
    2-11-3  39.436000          0          0        100          0
    2-12-3  39.419273          0          0        100          0
    2-13-3  39.402545          0          0        100          0
    2-14-3  39.385818          0          0        100          0
    2-15-3  39.369091          0          0        100          0
    2-16-3  39.352364          0          0        100          0
    2-17-3  39.335636          0          0        100          0
    2-18-3  39.318909          0          0        100          0
    2-19-3  39.302182          0          0        100          0
    2-20-3  39.285455          0          0        100          0
    2-21-3  39.268727          0          0        100          0
    2-22-3  39.252000          0          0        100          0
    2-23-3  39.235273          0          0        100          0
    2-24-3  39.218545          0          0        100          0
    2-25-3  39.201818          0          0        100          0
    2-26-3  39.185091          0          0        100          0
    2-27-3  39.168364          0          0        100          0
    2-28-3  39.151636          0          0        100          0
    2-29-3  39.134909          0          0        100          0
    2-30-3  39.118182          0          0        100          0
    2-31-3  39.101455          0          0        100          0
    2-32-3  39.084727          0          0        100          0
    2-33-3  39.068000          0          0        100          0
    2-34-3  39.051273          0          0        100          0
    2-35-3  39.034545          0          0        100          0
    2-36-3  39.017818          0          0        100          0
    2-37-3  39.001091          0          0        100          0
    2-38-3  38.984364          0          0        100          0
    2-39-3  38.967636          0          0        100          0
    2-40-3  38.950909          0          0        100          0
    2-41-3  38.934182          0          0        100          0
    2-42-3  38.917455          0          0        100          0
    2-43-3  38.900727          0          0        100          0
    2-44-3  38.884000          0          0        100          0
    2-45-3  38.867273          0          0        100          0
    2-46-3  38.850545          0          0        100          0
    2-47-3  38.833818          0          0        100          0
    2-48-3  38.817091          0          0        100          0
    2-49-3  38.800364          0          0        100          0
    2-50-3  38.783636          0          0        100          0
    2-51-3  38.766909          0          0        100          0
    2-52-3  38.750182          0          0        100          0
    2-53-3  38.733455          0          0        100          0
    2-54-3  38.716727          0          0        100          0
     3-1-4  38.673636          0          0        100          0
     3-2-4  38.647273          0          0        100          0
     3-3-4  38.620909          0          0        100          0
     3-4-4  38.594545          0          0        100          0
     3-5-4  38.568182          0          0        100          0
     3-6-4  38.541818          0          0        100          0
     3-7-4  38.515455          0          0        100          0
     3-8-4  38.489091          0          0        100          0
     3-9-4  38.462727          0          0        100          0
    3-10-4  38.436364          0          0        100          0
    3-11-4  38.410000          0          0        100          0
    3-12-4  38.383636          0          0        100          0
    3-13-4  38.357273          0          0        100          0
    3-14-4  38.330909          0          0        100          0
    3-15-4  38.304545          0          0        100          0
    3-16-4  38.278182          0          0        100          0
    3-17-4  38.251818          0          0        100          0
    3-18-4  38.225455          0          0        100          0
    3-19-4  38.199091          0          0        100          0
    3-20-4  38.172727          0          0        100          0
    3-21-4  38.146364          0          0        100          0
    3-22-4  38.120000          0          0        100          0
    3-23-4  38.093636          0          0        100          0
    3-24-4  38.067273          0          0        100          0
    3-25-4  38.040909          0          0        100          0
    3-26-4  38.014545          0          0        100          0
    3-27-4  37.988182          0          0        100          0
    3-28-4  37.961818          0          0        100          0
    3-29-4  37.935455          0          0        100          0
    3-30-4  37.909091          0          0        100          0
    3-31-4  37.882727          0          0        100          0
    3-32-4  37.856364          0          0        100          0
    3-33-4  37.830000          0          0        100          0
    3-34-4  37.803636          0          0        100          0
    3-35-4  37.777273          0          0        100          0
    3-36-4  37.750909          0          0        100          0
    3-37-4  37.724545          0          0        100          0
    3-38-4  37.698182          0          0        100          0
    3-39-4  37.671818          0          0        100          0
    3-40-4  37.645455          0          0        100          0
    3-41-4  37.619091          0          0        100          0
    3-42-4  37.592727          0          0        100          0
    3-43-4  37.566364          0          0        100          0
    3-44-4  37.540000          0          0        100          0
    3-45-4  37.513636          0          0        100          0
    3-46-4  37.487273          0          0        100          0
    3-47-4  37.460909          0          0        100          0
    3-48-4  37.434545          0          0        100          0
    3-49-4  37.408182          0          0        100          0
    3-50-4  37.381818          0          0        100          0
    3-51-4  37.355455          0          0        100          0
    3-52-4  37.329091          0          0        100          0
    3-53-4  37.302727          0          0        100          0
    3-54-4  37.276364          0          0        100          0
     4-1-5  37.226098          0          0        100          0
     4-2-5  37.202195          0          0        100          0
     4-3-5  37.178293          0          0        100          0
     4-4-5  37.154390          0          0        100          0
     4-5-5  37.130488          0          0        100          0
     4-6-5  37.106585          0          0        100          0
     4-7-5  37.082683          0          0        100          0
     4-8-5  37.058780          0          0        100          0
     4-9-5  37.034878          0          0        100          0
    4-10-5  37.010976          0          0        100          0
    4-11-5  36.987073          0          0        100          0
    4-12-5  36.963171          0          0        100          0
    4-13-5  36.939268          0          0        100          0
    4-14-5  36.915366          0          0        100          0
    4-15-5  36.891463          0          0        100          0
    4-16-5  36.867561          0          0        100          0
    4-17-5  36.843659          0          0        100          0
    4-18-5  36.819756          0          0        100          0
    4-19-5  36.795854          0          0        100          0
    4-20-5  36.771951          0          0        100          0
    4-21-5  36.748049          0          0        100          0
    4-22-5  36.724146          0          0        100          0
    4-23-5  36.700244          0          0        100          0
    4-24-5  36.676341          0          0        100          0
    4-25-5  36.652439          0          0        100          0
    4-26-5  36.628537          0          0        100          0
    4-27-5  36.604634          0          0        100          0
    4-28-5  36.580732          0          0        100          0
    4-29-5  36.556829          0          0        100          0