[TITLE]
Modena -- Bragalli, D'Ambrosio, Lee, Lodi, Toth (2008)
Originally presented by:
Bragalli, C., D'Ambrosio, C., Lee, J., Lodi, A., & Toth, P. (2012, June). On the optimal design of water distribution networks: a practical MINLP approach. Optimization and Engineering, 13 (2), 219-246.
Details of this specific conversion process are included in:
PLACEHOLDER

[JUNCTIONS]
;ID              	Elev        	Demand      	Pattern
         1      39.49   0.040002                     ;
         2      39.62   0.966665                     ;
         3      38.70   3.419990                     ;
         4      37.25   1.840013                     ;
         5      36.27   0.639996                     ;
         6      35.95   0.519993                     ;
         7      35.95   0.686669                     ;
         8      36.09   1.413324                     ;
         9      36.18   0.773338                     ;
        10      37.00   1.186667                     ;
        11      36.50   0.293330                     ;
        12      37.39   0.020001                     ;
        13      38.07   0.379999                     ;
        14      37.02   0.240002                     ;
        15      41.26   2.200007                     ;
        16      39.35   0.020001                     ;
        17      39.53   1.400006                     ;
        18      36.59   3.113327                     ;
        19      36.76   0.000000                     ;
        20      37.72   1.020009                     ;
        21      37.31   3.073324                     ;
        22      37.62   0.706663                     ;
        23      36.99   0.880006                     ;
        24      35.20   1.826657                     ;
        25      35.11   0.393334                     ;
        26      34.65   0.299998                     ;
        27      34.33   0.426671                     ;
        28      36.15   4.740003                     ;
        29      36.30   0.620004                     ;
        30      36.10   0.026667                     ;
        31      36.14   0.013332                     ;
        32      35.80   1.953320                     ;
        33      33.26   1.559997                     ;
        34      33.34   1.293323                     ;
        35      33.51   0.793332                     ;
        36      32.70   0.940008                     ;
        37      32.65   1.986666                     ;
        38      32.56   1.406657                     ;
        39      33.56   5.159980                     ;
        40      31.59   2.859994                     ;
        41      31.38   5.186674                     ;
        42      32.67   2.499992                     ;
        43      33.50   1.579999                     ;
        44      33.57   0.946659                     ;
        45      33.77   0.213335                     ;
        46      34.14   0.759997                     ;
        47      33.68   0.820009                     ;
        48      33.71   0.913323                     ;
        49      31.68   0.786658                     ;
        50      33.34   1.206659                     ;
        51      32.83   0.646672                     ;
        52      32.78   0.366667                     ;
        53      39.28   1.846679                     ;
        54      37.12   0.433327                     ;
        55      36.48   0.920006                     ;
        56      36.42   5.520016                     ;
        57      36.13   0.813343                     ;
        58      36.05   2.566683                     ;
        59      36.77   1.746668                     ;
        60      35.48   1.853328                     ;
        61      35.05   1.040009                     ;
        62      35.10   0.773338                     ;
        63      37.95   0.813343                     ;
        64      38.44   1.953320                     ;
        65      37.81   0.753331                     ;
        66      38.22   0.746657                     ;
        67      38.73   0.320003                     ;
        68      38.95   0.913323                     ;
        69      39.70   1.506669                     ;
        70      40.59   0.873327                     ;
        71      40.81   0.706663                     ;
        72      41.06   0.253332                     ;
        73      41.45   1.173345                     ;
        74      41.83   0.373337                     ;
        75      41.44   0.000000                     ;
        76      41.09   3.093351                     ;
        77      40.74   0.686669                     ;
        78      38.60   2.053320                     ;
        79      36.91   1.066674                     ;
        80      36.75   2.993331                     ;
        81      36.81   0.833341                     ;
        82      37.05   0.579997                     ;
        83      35.88   0.480003                     ;
        84      36.45   0.326663                     ;
        85      36.16   2.613351                     ;
        86      34.99   0.626662                     ;
        87      35.61   2.220007                     ;
        88      34.89   2.779982                     ;
        89      35.59   0.960009                     ;
        90      35.70   1.226671                     ;
        91      35.20   1.333342                     ;
        92      35.64   1.493320                     ;
        93      35.93   0.133330                     ;
        94      37.64   1.513325                     ;
        95      37.17   0.960009                     ;
        96      37.10   1.779999                     ;
        97      36.97   0.400004                     ;
        98      37.00   1.840013                     ;
        99      36.74   0.033334                     ;
       100      34.78   1.373326                     ;
       101      34.26   2.126657                     ;
       102      33.66   3.126667                     ;
       103      33.78   1.133336                     ;
       104      33.75   0.013332                     ;
       105      33.38   0.066667                     ;
       106      34.85   0.739994                     ;
       107      34.27   0.680007                     ;
       108      34.30   0.586673                     ;
       109      33.95   1.553322                     ;
       110      33.92   0.206665                     ;
       111      32.32   0.299998                     ;
       112      34.76   1.973343                     ;
       113      34.21   5.413348                     ;
       114      34.92   1.173345                     ;
       115      32.96   3.973334                     ;
       116      30.69   0.000000                     ;
       117      30.59   4.226675                     ;
       118      30.73   0.000000                     ;
       119      30.70   0.000000                     ;
       120      31.02   2.020012                     ;
       121      31.03   1.233338                     ;
       122      31.75   1.180008                     ;
       123      32.00   0.986663                     ;
       124      32.05   0.000000                     ;
       125      32.10   0.880006                     ;
       126      33.76   1.493320                     ;
       127      32.27   0.840008                     ;
       128      31.86   3.593316                     ;
       129      32.42   0.666673                     ;
       130      33.00   1.073325                     ;
       131      33.63   3.139997                     ;
       132      36.37   1.759992                     ;
       133      35.69   1.406657                     ;
       134      35.52   1.006666                     ;
       135      35.56   0.560000                     ;
       136      35.92   0.699997                     ;
       137      35.37   0.773338                     ;
       138      35.06   1.633332                     ;
       139      34.12   1.106656                     ;
       140      39.35   0.000000                     ;
       141      39.10   0.000000                     ;
       142      39.84   0.000000                     ;
       143      39.84   0.533335                     ;
       144      39.45   0.219996                     ;
       145      39.70   0.226666                     ;
       146      37.95   0.680007                     ;
       147      37.61   0.820009                     ;
       148      37.95   0.059998                     ;
       149      35.69   0.286667                     ;
       150      35.32   1.040009                     ;
       151      35.81   0.533335                     ;
       152      35.81   0.920006                     ;
       153      36.02   0.353338                     ;
       154      38.25   0.393334                     ;
       155      37.50   1.553322                     ;
       156      37.54   0.020001                     ;
       157      37.08   0.206665                     ;
       158      36.76   5.659999                     ;
       159      35.88   0.213335                     ;
       160      35.77   0.140004                     ;
       161      34.70   0.013332                     ;
       162      35.37   0.820009                     ;
       163      34.99   0.660002                     ;
       164      35.93   0.366667                     ;
       165      36.27   0.519993                     ;
       166      32.67   0.179999                     ;
       167      32.75   0.179999                     ;
       168      32.88   0.046666                     ;
       169      34.09   6.313357                     ;
       170      36.09   1.759992                     ;
       171      36.05   0.680007                     ;
       172      36.04   0.586673                     ;
       173      36.02   0.326663                     ;
       174      31.76   0.000000                     ;
       175      31.91   0.746657                     ;
       176      31.80   0.000000                     ;
       177      31.48   0.000000                     ;
       178      31.12   0.006666                     ;
       179      31.10   0.000000                     ;
       180      31.19   0.000000                     ;
       181      30.39   0.000000                     ;
       182      30.55   0.006666                     ;
       183      31.13   1.226671                     ;
       184      31.81   0.026667                     ;
       185      32.34   1.119991                     ;
       186      32.83   1.579999                     ;
       187      33.69   0.059998                     ;
       188      33.17   0.820009                     ;
       189      33.23   2.599984                     ;
       190      33.34   0.779994                     ;
       191      33.77   1.133336                     ;
       192      33.77   1.433341                     ;
       193      32.20   2.666656                     ;
       194      34.41   2.973326                     ;
       195      33.39   0.033334                     ;
       196      34.34   0.006666                     ;
       197      35.03   2.746674                     ;
       198      34.44   0.260002                     ;
       199      34.53   0.100001                     ;
       200      34.94   1.213344                     ;
       201      34.70   2.286672                     ;
       202      36.70   0.413329                     ;
       203      36.20   2.779982                     ;
       204      35.03   1.506669                     ;
       205      36.77   0.673342                     ;
       206      36.20   0.360004                     ;
       207      37.88   0.513330                     ;
       208      38.03   0.219996                     ;
       209      36.86   0.766672                     ;
       210      37.24   1.020009                     ;
       211      36.66   0.000000                     ;
       212      36.49   0.200003                     ;
       213      37.30   0.213335                     ;
       214      40.30   0.373337                     ;
       215      39.85   0.000000                     ;
       216      41.00   0.126670                     ;
       217      41.16   0.946659                     ;
       218      35.05   0.393334                     ;
       219      33.92   0.986663                     ;
       220      32.14   0.613329                     ;
       221      34.17   0.219996                     ;
       222      35.10   0.040002                     ;
       223      31.55   0.306668                     ;
       224      31.75   0.480003                     ;
       225      32.07   0.000000                     ;
       226      31.94   0.000000                     ;
       227      31.66   0.133330                     ;
       228      31.04   0.053334                     ;
       229      31.05   0.866673                     ;
       230      38.49   0.713342                     ;
       231      35.68   0.686669                     ;
       232      35.39   0.020001                     ;
       233      34.89   0.766672                     ;
       234      34.86   0.953333                     ;
       235      34.99   3.240000                     ;
       236      32.54   3.139997                     ;
       237      34.41   0.893338                     ;
       238      36.16   1.246676                     ;
       239      35.30   0.546668                     ;
       240      35.17   0.626662                     ;
       241      32.92   0.059998                     ;
       242      33.07   0.853339                     ;
       243      31.91   0.286667                     ;
       244      32.00   0.339998                     ;
       245      32.05   0.000000                     ;
       246      32.05   0.006666                     ;
       247      30.70   0.006666                     ;
       248      31.33   0.000000                     ;
       249      36.30   1.166676                     ;
       250      35.83   0.686669                     ;
       251      36.95   0.840008                     ;
       252      38.01   0.906665                     ;
       253      36.65   0.093334                     ;
       254      36.91   0.000000                     ;
       255      36.77   1.306679                     ;
       256      31.50   1.473342                     ;
       257      38.65   0.413329                     ;
       258      39.54   0.000000                     ;
       259      39.58   0.333329                     ;
       260      39.58   0.073336                     ;
       261      40.55   0.079998                     ;
       262      40.79   0.146664                     ;
       263      40.95   0.853339                     ;
       264      37.76   0.126670                     ;
       265      35.96   0.146664                     ;
       266      36.81   0.793332                     ;
       267      36.21   1.126666                     ;
       268      35.61   0.286667                     ;


[RESERVOIRS]

;ID              	Head        	Pattern

 269             	72.0000     	                	;

 270             	73.8000     	                	;

 271             	73.0000     	                	;

 272             	74.5000     	                	;



[TANKS]

;ID              	Elevation   	InitLevel   	MinLevel    	MaxLevel    	Diameter    	MinVol      	VolCurve        	Overflow



[PIPES]

;ID              	Node1           	Node2           	Length      	Diameter    	Roughness   	MinorLoss   	Status

 1               	1               	16              	46.8400     	125.0000    	130.0000    	0.0000      	Open  	;

 2               	16              	2               	267.6800    	100.0000    	130.0000    	0.0000      	Open  	;

 3               	2               	3               	541.0700    	100.0000    	130.0000    	0.0000      	Open  	;

 4               	3               	4               	542.2900    	100.0000    	130.0000    	0.0000      	Open  	;

 5               	4               	5               	404.7200    	100.0000    	130.0000    	0.0000      	Open  	;

 6               	5               	206             	151.6700    	100.0000    	130.0000    	0.0000      	Open  	;

 7               	206             	6               	341.5700    	100.0000    	130.0000    	0.0000      	Open  	;

 8               	1               	140             	39.9100     	100.0000    	130.0000    	0.0000      	Open  	;

 9               	140             	143             	269.7300    	100.0000    	130.0000    	0.0000      	Open  	;

 10              	143             	145             	45.9200     	100.0000    	130.0000    	0.0000      	Open  	;

 11              	145             	146             	890.0900    	100.0000    	130.0000    	0.0000      	Open  	;

 12              	146             	148             	33.7900     	100.0000    	130.0000    	0.0000      	Open  	;

 13              	148             	63              	6.0300      	100.0000    	130.0000    	0.0000      	Open  	;

 14              	63              	149             	367.9200    	125.0000    	130.0000    	0.0000      	Open  	;

 15              	149             	150             	97.6600     	125.0000    	130.0000    	0.0000      	Open  	;

 16              	150             	60              	322.1900    	100.0000    	130.0000    	0.0000      	Open  	;

 17              	60              	61              	359.4800    	100.0000    	130.0000    	0.0000      	Open  	;

 18              	61              	218             	199.5900    	100.0000    	130.0000    	0.0000      	Open  	;

 19              	1               	141             	57.0600     	200.0000    	130.0000    	0.0000      	Open  	;

 20              	141             	142             	223.4100    	200.0000    	130.0000    	0.0000      	Open  	;

 21              	142             	144             	47.0300     	200.0000    	130.0000    	0.0000      	Open  	;

 22              	144             	257             	782.6700    	200.0000    	130.0000    	0.0000      	Open  	;

 23              	257             	53              	231.8700    	125.0000    	130.0000    	0.0000      	Open  	;

 24              	53              	251             	279.8400    	100.0000    	130.0000    	0.0000      	Open  	;

 25              	251             	57              	145.7000    	100.0000    	130.0000    	0.0000      	Open  	;

 26              	57              	58              	81.1000     	100.0000    	130.0000    	0.0000      	Open  	;

 27              	58              	59              	550.1700    	100.0000    	130.0000    	0.0000      	Open  	;

 28              	53              	230             	155.6300    	100.0000    	130.0000    	0.0000      	Open  	;

 29              	230             	252             	357.8100    	100.0000    	130.0000    	0.0000      	Open  	;

 30              	252             	3               	267.3200    	100.0000    	130.0000    	0.0000      	Open  	;

 31              	3               	13              	612.5000    	100.0000    	130.0000    	0.0000      	Open  	;

 32              	13              	12              	160.5000    	100.0000    	130.0000    	0.0000      	Open  	;

 33              	12              	11              	531.7100    	100.0000    	130.0000    	0.0000      	Open  	;

 34              	1               	258             	41.9100     	200.0000    	130.0000    	0.0000      	Open  	;

 35              	258             	259             	95.2200     	200.0000    	130.0000    	0.0000      	Open  	;

 36              	259             	260             	25.1300     	200.0000    	130.0000    	0.0000      	Open  	;

 37              	260             	215             	158.1200    	200.0000    	130.0000    	0.0000      	Open  	;

 38              	215             	261             	95.4000     	200.0000    	130.0000    	0.0000      	Open  	;

 39              	261             	77              	52.9200     	200.0000    	130.0000    	0.0000      	Open  	;

 40              	77              	262             	44.9200     	200.0000    	130.0000    	0.0000      	Open  	;

 41              	262             	216             	127.0500    	200.0000    	130.0000    	0.0000      	Open  	;

 42              	216             	263             	56.6800     	200.0000    	130.0000    	0.0000      	Open  	;

 43              	263             	76              	181.2900    	200.0000    	130.0000    	0.0000      	Open  	;

 44              	76              	217             	220.9000    	200.0000    	130.0000    	0.0000      	Open  	;

 45              	217             	75              	67.6500     	200.0000    	130.0000    	0.0000      	Open  	;

 46              	75              	74              	36.0600     	200.0000    	130.0000    	0.0000      	Open  	;

 47              	74              	73              	242.2900    	150.0000    	130.0000    	0.0000      	Open  	;

 48              	73              	72              	70.4500     	150.0000    	130.0000    	0.0000      	Open  	;

 49              	72              	71              	112.8300    	150.0000    	130.0000    	0.0000      	Open  	;

 50              	71              	70              	105.7200    	150.0000    	130.0000    	0.0000      	Open  	;

 51              	70              	69              	199.4200    	150.0000    	130.0000    	0.0000      	Open  	;

 52              	69              	68              	180.6400    	125.0000    	130.0000    	0.0000      	Open  	;

 53              	68              	78              	288.7600    	125.0000    	130.0000    	0.0000      	Open  	;

 54              	78              	154             	69.2600     	100.0000    	130.0000    	0.0000      	Open  	;

 55              	154             	79              	718.4500    	100.0000    	130.0000    	0.0000      	Open  	;

 56              	79              	155             	390.7800    	100.0000    	130.0000    	0.0000      	Open  	;

 57              	155             	156             	24.0000     	125.0000    	130.0000    	0.0000      	Open  	;

 58              	156             	95              	504.5200    	125.0000    	130.0000    	0.0000      	Open  	;

 59              	95              	96              	41.7800     	150.0000    	130.0000    	0.0000      	Open  	;

 60              	96              	97              	367.9300    	150.0000    	130.0000    	0.0000      	Open  	;

 61              	97              	157             	101.8600    	150.0000    	130.0000    	0.0000      	Open  	;

 62              	157             	98              	125.3600    	150.0000    	130.0000    	0.0000      	Open  	;

 63              	98              	158             	699.7600    	150.0000    	130.0000    	0.0000      	Open  	;

 64              	158             	136             	448.0500    	200.0000    	130.0000    	0.0000      	Open  	;

 65              	136             	159             	114.2900    	200.0000    	130.0000    	0.0000      	Open  	;

 66              	159             	160             	197.3000    	200.0000    	130.0000    	0.0000      	Open  	;

 67              	160             	137             	235.9800    	200.0000    	130.0000    	0.0000      	Open  	;

 68              	137             	135             	224.8700    	200.0000    	130.0000    	0.0000      	Open  	;

 69              	135             	222             	176.7300    	125.0000    	130.0000    	0.0000      	Open  	;

 70              	222             	161             	76.4400     	100.0000    	130.0000    	0.0000      	Open  	;

 71              	161             	131             	356.9400    	100.0000    	130.0000    	0.0000      	Open  	;

 72              	131             	242             	443.7900    	100.0000    	130.0000    	0.0000      	Open  	;

 73              	242             	130             	20.5500     	100.0000    	130.0000    	0.0000      	Open  	;

 74              	130             	241             	113.3300    	100.0000    	130.0000    	0.0000      	Open  	;

 75              	241             	168             	25.9600     	100.0000    	130.0000    	0.0000      	Open  	;

 76              	168             	167             	145.0400    	100.0000    	130.0000    	0.0000      	Open  	;

 77              	167             	166             	55.2400     	100.0000    	130.0000    	0.0000      	Open  	;

 78              	166             	129             	208.2200    	100.0000    	130.0000    	0.0000      	Open  	;

 79              	129             	125             	190.4300    	100.0000    	130.0000    	0.0000      	Open  	;

 80              	125             	246             	70.9800     	100.0000    	130.0000    	0.0000      	Open  	;

 81              	246             	245             	52.0400     	100.0000    	130.0000    	0.0000      	Open  	;

 82              	245             	124             	34.0300     	100.0000    	130.0000    	0.0000      	Open  	;

 83              	124             	225             	79.4700     	100.0000    	130.0000    	0.0000      	Open  	;

 84              	225             	226             	277.9900    	100.0000    	130.0000    	0.0000      	Open  	;

 85              	176             	227             	86.0300     	100.0000    	130.0000    	0.0000      	Open  	;

 86              	227             	177             	296.2500    	100.0000    	130.0000    	0.0000      	Open  	;

 87              	177             	180             	111.3000    	100.0000    	130.0000    	0.0000      	Open  	;

 88              	180             	178             	123.3700    	100.0000    	130.0000    	0.0000      	Open  	;

 89              	178             	179             	196.2700    	100.0000    	130.0000    	0.0000      	Open  	;

 90              	179             	228             	198.4600    	100.0000    	130.0000    	0.0000      	Open  	;

 91              	228             	229             	75.6200     	100.0000    	130.0000    	0.0000      	Open  	;

 92              	229             	121             	110.1400    	100.0000    	130.0000    	0.0000      	Open  	;

 93              	121             	118             	423.5700    	100.0000    	130.0000    	0.0000      	Open  	;

 94              	118             	117             	116.5700    	100.0000    	130.0000    	0.0000      	Open  	;

 95              	117             	181             	100.6100    	100.0000    	130.0000    	0.0000      	Open  	;

 96              	181             	182             	164.8400    	100.0000    	130.0000    	0.0000      	Open  	;

 97              	182             	116             	47.4900     	100.0000    	130.0000    	0.0000      	Open  	;

 98              	116             	247             	87.5400     	100.0000    	130.0000    	0.0000      	Open  	;

 99              	49              	184             	189.2700    	150.0000    	130.0000    	0.0000      	Open  	;

 100             	184             	41              	244.8000    	150.0000    	130.0000    	0.0000      	Open  	;

 101             	41              	248             	293.4700    	150.0000    	130.0000    	0.0000      	Open  	;

 102             	248             	40              	308.6400    	150.0000    	130.0000    	0.0000      	Open  	;

 103             	40              	39              	566.5700    	150.0000    	130.0000    	0.0000      	Open  	;

 104             	226             	176             	95.1400     	100.0000    	130.0000    	0.0000      	Open  	;

 105             	247             	183             	248.5500    	100.0000    	130.0000    	0.0000      	Open  	;

 106             	183             	49              	187.7800    	100.0000    	130.0000    	0.0000      	Open  	;

 107             	39              	38              	357.6700    	125.0000    	130.0000    	0.0000      	Open  	;

 108             	38              	37              	700.5700    	100.0000    	130.0000    	0.0000      	Open  	;

 109             	37              	193             	404.4600    	100.0000    	130.0000    	0.0000      	Open  	;

 110             	193             	36              	160.8600    	125.0000    	130.0000    	0.0000      	Open  	;

 111             	36              	194             	557.4200    	125.0000    	130.0000    	0.0000      	Open  	;

 112             	194             	27              	127.0200    	150.0000    	130.0000    	0.0000      	Open  	;

 113             	27              	26              	46.6600     	150.0000    	130.0000    	0.0000      	Open  	;

 114             	26              	195             	674.3200    	150.0000    	130.0000    	0.0000      	Open  	;

 115             	195             	33              	50.7600     	125.0000    	130.0000    	0.0000      	Open  	;

 116             	26              	196             	138.5400    	100.0000    	130.0000    	0.0000      	Open  	;

 117             	196             	25              	199.3300    	100.0000    	130.0000    	0.0000      	Open  	;

 118             	25              	232             	231.1200    	100.0000    	130.0000    	0.0000      	Open  	;

 119             	232             	24              	187.0600    	100.0000    	130.0000    	0.0000      	Open  	;

 120             	24              	231             	240.6400    	100.0000    	130.0000    	0.0000      	Open  	;

 121             	231             	7               	173.4400    	125.0000    	130.0000    	0.0000      	Open  	;

 122             	7               	6               	23.5800     	100.0000    	130.0000    	0.0000      	Open  	;

 123             	6               	28              	526.7400    	125.0000    	130.0000    	0.0000      	Open  	;

 124             	28              	249             	500.7200    	100.0000    	130.0000    	0.0000      	Open  	;

 125             	249             	29              	15.2900     	100.0000    	130.0000    	0.0000      	Open  	;
