[TITLE]
Pescara -- Bragalli, D'Ambrosio, Lee, Lodi, Toth (2008)
Originally presented by:
Bragalli, C., D'Ambrosio, C., Lee, J., Lodi, A., & Toth, P. (2012, June). On the optimal design of water distribution networks: a practical MINLP approach. Optimization and Engineering, 13 (2), 219-246.
Converted to represent an intermittent water supply using EPANET's PDA method
Details of this specific conversion process are included in:
PLACEHOLDER

[JUNCTIONS]
;ID              	Elev        	Demand      	Pattern
         1        2.9          0                     ;
         2        5.0          0                     ;
         3        3.5          0                     ;
         4        3.8          0                     ;
         5        2.2          0                     ;
         6        7.0          0                     ;
         7        6.5          0                     ;
         8        5.2          0                     ;
         9        4.3          0                     ;
        10        5.2          0                     ;
        11       28.0          0                     ;
        12        3.2          0                     ;
        13        3.2          0                     ;
        14       19.2          0                     ;
        17        4.0          0                     ;
        18        3.5          0                     ;
        19        2.8          0                     ;
        20        2.7          0                     ;
        21        1.8          0                     ;
        22        2.1          0                     ;
        23        2.0          0                     ;
        24       18.7          0                     ;
        25        3.2          0                     ;
        26        1.6          0                     ;
        27        3.8          0                     ;
        28        4.3          0                     ;
        29        3.6          0                     ;
        30        3.2          0                     ;
        31        2.8          0                     ;
        32        1.8          0                     ;
        33        3.8          0                     ;
        34        2.9          0                     ;
        35        3.7          0                     ;
        36        2.1          0                     ;
        37        6.7          0                     ;
        38        6.7          0                     ;
        39        4.2          0                     ;
        40        2.9          0                     ;
        41        2.9          0                     ;
        42       28.5          0                     ;
        44       27.3          0                     ;
        45        1.1          0                     ;
        46        2.5          0                     ;
        47        2.8          0                     ;
        48        3.3          0                     ;
        49        1.8          0                     ;
        50        1.8          0                     ;
        51        1.6          0                     ;
        52        1.8          0                     ;
        53        1.6          0                     ;
        54        3.3          0                     ;
        55        2.5          0                     ;
        56        2.8          0                     ;
        57        3.2          0                     ;
        58        3.6          0                     ;
        59        3.8          0                     ;
        60        3.1          0                     ;
        61        3.0          0                     ;
        62        4.2          0                     ;
        76        4.2          0                     ;
        82        2.1          0                     ;
        83        2.1          0                     ;
        84        3.3          0                     ;
        85        2.1          0                     ;
        86        1.5          0                     ;
        87       19.2          0                     ;
        88        2.1          0                     ;
        89        1.5          0                     ;
 AN1forNode1        2.9          0                     ;
 AN1forNode2        5.0          0                     ;
 AN1forNode3        3.5          0                     ;
 AN1forNode4        3.8          0                     ;
 AN1forNode5        2.2          0                     ;
 AN1forNode6        7.0          0                     ;
 AN1forNode8        5.2          0                     ;
 AN1forNode9        4.3          0                     ;
AN1forNode10        5.2          0                     ;
AN1forNode11       28.0          0                     ;
AN1forNode12        3.2          0                     ;
AN1forNode13        3.2          0                     ;
AN1forNode14       19.2          0                     ;
AN1forNode17        4.0          0                     ;
AN1forNode18        3.5          0                     ;
AN1forNode19        2.8          0                     ;
AN1forNode20        2.7          0                     ;
AN1forNode21        1.8          0                     ;
AN1forNode22        2.1          0                     ;
AN1forNode23        2.0          0                     ;
AN1forNode24       18.7          0                     ;
AN1forNode25        3.2          0                     ;
AN1forNode26        1.6          0                     ;
AN1forNode27        3.8          0                     ;
AN1forNode28        4.3          0                     ;
AN1forNode29        3.6          0                     ;
AN1forNode30        3.2          0                     ;
AN1forNode31        2.8          0                     ;
AN1forNode32        1.8          0                     ;
AN1forNode33        3.8          0                     ;
AN1forNode34        2.9          0                     ;
AN1forNode35        3.7          0                     ;
AN1forNode36        2.1          0                     ;
AN1forNode37        6.7          0                     ;
AN1forNode38        6.7          0                     ;
AN1forNode39        4.2          0                     ;
AN1forNode40        2.9          0                     ;
AN1forNode41        2.9          0                     ;
AN1forNode42       28.5          0                     ;
AN1forNode44       27.3          0                     ;
AN1forNode45        1.1          0                     ;
AN1forNode46        2.5          0                     ;
AN1forNode47        2.8          0                     ;
AN1forNode48        3.3          0                     ;
AN1forNode49        1.8          0                     ;
AN1forNode50        1.8          0                     ;
AN1forNode51        1.6          0                     ;
AN1forNode52        1.8          0                     ;
AN1forNode53        1.6          0                     ;
AN1forNode55        2.5          0                     ;
AN1forNode56        2.8          0                     ;
AN1forNode57        3.2          0                     ;
AN1forNode58        3.6          0                     ;
AN1forNode59        3.8          0                     ;
AN1forNode60        3.1          0                     ;
AN1forNode61        3.0          0                     ;
AN1forNode62        4.2          0                     ;
AN1forNode82        2.1          0                     ;
AN1forNode84        3.3          0                     ;
AN1forNode85        2.1          0                     ;
AN1forNode86        1.5          0                     ;
AN1forNode87       19.2          0                     ;
AN1forNode88        2.1          0                     ;
AN1forNode89        1.5          0                     ;
 AN2forNode1        2.9          0                     ;
 AN2forNode2        5.0          0                     ;
 AN2forNode3        3.5          0                     ;
 AN2forNode4        3.8          0                     ;
 AN2forNode5        2.2          0                     ;
 AN2forNode6        7.0          0                     ;
 AN2forNode8        5.2          0                     ;
 AN2forNode9        4.3          0                     ;
AN2forNode10        5.2          0                     ;
AN2forNode11       28.0          0                     ;
AN2forNode12        3.2          0                     ;
AN2forNode13        3.2          0                     ;
AN2forNode14       19.2          0                     ;
AN2forNode17        4.0          0                     ;
AN2forNode18        3.5          0                     ;
AN2forNode19        2.8          0                     ;
AN2forNode20        2.7          0                     ;
AN2forNode21        1.8          0                     ;
AN2forNode22        2.1          0                     ;
AN2forNode23        2.0          0                     ;
AN2forNode24       18.7          0                     ;
AN2forNode25        3.2          0                     ;
AN2forNode26        1.6          0                     ;
AN2forNode27        3.8          0                     ;
AN2forNode28        4.3          0                     ;
AN2forNode29        3.6          0                     ;
AN2forNode30        3.2          0                     ;
AN2forNode31        2.8          0                     ;
AN2forNode32        1.8          0                     ;
AN2forNode33        3.8          0                     ;
AN2forNode34        2.9          0                     ;
AN2forNode35        3.7          0                     ;
AN2forNode36        2.1          0                     ;
AN2forNode37        6.7          0                     ;
AN2forNode38        6.7          0                     ;
AN2forNode39        4.2          0                     ;
AN2forNode40        2.9          0                     ;
AN2forNode41        2.9          0                     ;
AN2forNode42       28.5          0                     ;
AN2forNode44       27.3          0                     ;
AN2forNode45        1.1          0                     ;
AN2forNode46        2.5          0                     ;
AN2forNode47        2.8          0                     ;
AN2forNode48        3.3          0                     ;
AN2forNode49        1.8          0                     ;
AN2forNode50        1.8          0                     ;
AN2forNode51        1.6          0                     ;
AN2forNode52        1.8          0                     ;
AN2forNode53        1.6          0                     ;
AN2forNode55        2.5          0                     ;
AN2forNode56        2.8          0                     ;
AN2forNode57        3.2          0                     ;
AN2forNode58        3.6          0                     ;
AN2forNode59        3.8          0                     ;
AN2forNode60        3.1          0                     ;
AN2forNode61        3.0          0                     ;
AN2forNode62        4.2          0                     ;
AN2forNode82        2.1          0                     ;
AN2forNode84        3.3          0                     ;
AN2forNode85        2.1          0                     ;
AN2forNode86        1.5          0                     ;
AN2forNode87       19.2          0                     ;
AN2forNode88        2.1          0                     ;
AN2forNode89        1.5          0                     ;


[RESERVOIRS]
;ID              	Head        	Pattern
 15              	57.0000     	                	;
 43              	53.0800     	                	;
 65              	55.0000     	                	;

[TANKS]
;ID              	Elevation   	InitLevel   	MinLevel    	MaxLevel    	Diameter    	MinVol      	VolCurve        	Overflow
 ATforNode1        1.9        0.0        0.0        1.0    23.4646        0.0                     ;
 ATforNode2        4.0        0.0        0.0        1.0    26.1476        0.0                     ;
 ATforNode3        2.5        0.0        0.0        1.0    21.6225        0.0                     ;
 ATforNode4        2.8        0.0        0.0        1.0    21.6225        0.0                     ;
 ATforNode5        1.2        0.0        0.0        1.0    25.8195        0.0                     ;
 ATforNode6        6.0        0.0        0.0        1.0     9.4687        0.0                     ;
 ATforNode8        4.2        0.0        0.0        1.0    42.9899        0.0                     ;
 ATforNode9        3.3        0.0        0.0        1.0    15.5215        0.0                     ;
ATforNode10        4.2        0.0        0.0        1.0    30.0344        0.0                     ;
ATforNode11       27.0        0.0        0.0        1.0    40.4656        0.0                     ;
ATforNode12        2.2        0.0        0.0        1.0     5.1915        0.0                     ;
ATforNode13        2.2        0.0        0.0        1.0    20.2973        0.0                     ;
ATforNode14       18.2        0.0        0.0        1.0    18.2572        0.0                     ;
ATforNode17        3.0        0.0        0.0        1.0    12.3435        0.0                     ;
ATforNode18        2.5        0.0        0.0        1.0    16.6334        0.0                     ;
ATforNode19        1.8        0.0        0.0        1.0    16.2656        0.0                     ;
ATforNode20        1.7        0.0        0.0        1.0    34.0189        0.0                     ;
ATforNode21        0.8        0.0        0.0        1.0    30.5249        0.0                     ;
ATforNode22        1.1        0.0        0.0        1.0    23.9289        0.0                     ;
ATforNode23        1.0        0.0        0.0        1.0    10.9251        0.0                     ;
ATforNode24       17.7        0.0        0.0        1.0    18.9809        0.0                     ;
ATforNode25        2.2        0.0        0.0        1.0    23.9289        0.0                     ;
ATforNode26        0.6        0.0        0.0        1.0    12.3657        0.0                     ;
ATforNode27        2.8        0.0        0.0        1.0    17.1062        0.0                     ;
ATforNode28        3.3        0.0        0.0        1.0    14.1303        0.0                     ;
ATforNode29        2.6        0.0        0.0        1.0    42.6043        0.0                     ;
ATforNode30        2.2        0.0        0.0        1.0    18.1666        0.0                     ;
ATforNode31        1.8        0.0        0.0        1.0    18.7623        0.0                     ;
ATforNode32        0.8        0.0        0.0        1.0    12.7598        0.0                     ;
ATforNode33        2.8        0.0        0.0        1.0    13.0370        0.0                     ;
ATforNode34        1.9        0.0        0.0        1.0    13.0370        0.0                     ;
ATforNode35        2.7        0.0        0.0        1.0    21.9883        0.0                     ;
ATforNode36        1.1        0.0        0.0        1.0     9.6128        0.0                     ;
ATforNode37        5.7        0.0        0.0        1.0    26.3676        0.0                     ;
ATforNode38        5.7        0.0        0.0        1.0    26.3676        0.0                     ;
ATforNode39        3.2        0.0        0.0        1.0    26.3676        0.0                     ;
ATforNode40        1.9        0.0        0.0        1.0    17.4878        0.0                     ;
ATforNode41        1.9        0.0        0.0        1.0    11.9587        0.0                     ;
ATforNode42       27.5        0.0        0.0        1.0    15.8546        0.0                     ;
ATforNode44       26.3        0.0        0.0        1.0    20.3919        0.0                     ;
ATforNode45        0.1        0.0        0.0        1.0    18.4817        0.0                     ;
ATforNode46        1.5        0.0        0.0        1.0    13.0370        0.0                     ;
ATforNode47        1.8        0.0        0.0        1.0     5.6967        0.0                     ;
ATforNode48        2.3        0.0        0.0        1.0    26.3572        0.0                     ;
ATforNode49        0.8        0.0        0.0        1.0    13.6954        0.0                     ;
ATforNode50        0.8        0.0        0.0        1.0    26.9556        0.0                     ;
ATforNode51        0.6        0.0        0.0        1.0    14.5899        0.0                     ;
ATforNode52        0.8        0.0        0.0        1.0    18.8063        0.0                     ;
ATforNode53        0.6        0.0        0.0        1.0    11.8431        0.0                     ;
ATforNode55        1.5        0.0        0.0        1.0    24.9308        0.0                     ;
ATforNode56        1.8        0.0        0.0        1.0    14.8144        0.0                     ;
ATforNode57        2.2        0.0        0.0        1.0    20.6466        0.0                     ;
ATforNode58        2.6        0.0        0.0        1.0    10.2498        0.0                     ;
ATforNode59        2.8        0.0        0.0        1.0     6.9573        0.0                     ;
ATforNode60        2.1        0.0        0.0        1.0    16.8143        0.0                     ;
ATforNode61        2.0        0.0        0.0        1.0    16.8143        0.0                     ;
ATforNode62        3.2        0.0        0.0        1.0    20.2294        0.0                     ;
ATforNode82        1.1        0.0        0.0        1.0     0.7416        0.0                     ;
ATforNode84        2.3        0.0        0.0        1.0     5.4500        0.0                     ;
ATforNode85        1.1        0.0        0.0        1.0     4.5113        0.0                     ;
ATforNode86        0.5        0.0        0.0        1.0    18.8501        0.0                     ;
ATforNode87       18.2        0.0        0.0        1.0    37.0823        0.0                     ;
ATforNode88        1.1        0.0        0.0        1.0    10.8747        0.0                     ;
ATforNode89        0.5        0.0        0.0        1.0     9.8111        0.0                     ;


[PIPES]
;ID              	Node1           	Node2           	Length      	Diameter    	Roughness   	MinorLoss   	Status
 1               	1               	2               	977.3600    	100.0000    	130.0000    	0.0000      	Open  	;
 2               	3               	4               	443.1700    	150.0000    	130.0000    	0.0000      	Open  	;
 3               	3               	5               	1410.7700   	100.0000    	130.0000    	0.0000      	Open  	;
 4               	3               	1               	269.6100    	125.0000    	130.0000    	0.0000      	Open  	;
 5               	6               	7               	116.5200    	100.0000    	130.0000    	0.0000      	Open  	;
 6               	6               	8               	203.0600    	100.0000    	130.0000    	0.0000      	Open  	;
 7               	9               	6               	2309.1400   	100.0000    	130.0000    	0.0000      	Open  	;
 8               	10              	11              	1479.9800   	150.0000    	130.0000    	0.0000      	Open  	;
 11              	15              	14              	43.9700     	350.0000    	130.0000    	0.0000      	Open  	;
 12              	13              	17              	589.1600    	200.0000    	130.0000    	0.0000      	Open  	;
 13              	18              	13              	618.5300    	200.0000    	130.0000    	0.0000      	Open  	;
 14              	18              	19              	341.1000    	200.0000    	130.0000    	0.0000      	Open  	;
 15              	20              	18              	341.9200    	100.0000    	130.0000    	0.0000      	Open  	;
 16              	21              	20              	434.2400    	100.0000    	130.0000    	0.0000      	Open  	;
 17              	22              	23              	240.5900    	100.0000    	130.0000    	0.0000      	Open  	;
 18              	24              	25              	957.4400    	200.0000    	130.0000    	0.0000      	Open  	;
 19              	14              	24              	171.0400    	350.0000    	130.0000    	0.0000      	Open  	;
 20              	24              	17              	235.5700    	300.0000    	130.0000    	0.0000      	Open  	;
 21              	26              	17              	3.5900      	200.0000    	130.0000    	0.0000      	Open  	;
 22              	26              	27              	324.3600    	200.0000    	130.0000    	0.0000      	Open  	;
 24              	21              	22              	749.7400    	100.0000    	130.0000    	0.0000      	Open  	;
 25              	23              	21              	639.7000    	100.0000    	130.0000    	0.0000      	Open  	;
 26              	27              	23              	422.9500    	100.0000    	130.0000    	0.0000      	Open  	;
 27              	20              	27              	843.5200    	125.0000    	130.0000    	0.0000      	Open  	;
 28              	19              	20              	609.2300    	100.0000    	130.0000    	0.0000      	Open  	;
 29              	28              	29              	179.0400    	150.0000    	130.0000    	0.0000      	Open  	;
 30              	28              	30              	570.9000    	100.0000    	130.0000    	0.0000      	Open  	;
 31              	30              	28              	575.7300    	100.0000    	130.0000    	0.0000      	Open  	;
 32              	31              	32              	250.2800    	100.0000    	130.0000    	0.0000      	Open  	;
 33              	30              	33              	442.1100    	100.0000    	130.0000    	0.0000      	Open  	;
 34              	34              	30              	762.3500    	100.0000    	130.0000    	0.0000      	Open  	;
 35              	35              	36              	1124.9000   	100.0000    	130.0000    	0.0000      	Open  	;
 36              	31              	11              	1903.7500   	100.0000    	130.0000    	0.0000      	Open  	;
 37              	37              	31              	125.5100    	125.0000    	130.0000    	0.0000      	Open  	;
 38              	37              	38              	121.2700    	200.0000    	130.0000    	0.0000      	Open  	;
 39              	19              	38              	55.3200     	200.0000    	130.0000    	0.0000      	Open  	;
 41              	40              	39              	424.8600    	100.0000    	130.0000    	0.0000      	Open  	;
 42              	40              	41              	72.8000     	100.0000    	130.0000    	0.0000      	Open  	;
 43              	9               	40              	554.0800    	100.0000    	130.0000    	0.0000      	Open  	;
 44              	33              	9               	305.5300    	100.0000    	130.0000    	0.0000      	Open  	;
 45              	41              	33              	568.3500    	100.0000    	130.0000    	0.0000      	Open  	;
 46              	34              	41              	63.8100     	100.0000    	130.0000    	0.0000      	Open  	;
 47              	39              	34              	310.7600    	100.0000    	130.0000    	0.0000      	Open  	;
 48              	12              	39              	1217.1700   	200.0000    	130.0000    	0.0000      	Open  	;
 49              	25              	12              	365.8200    	150.0000    	130.0000    	0.0000      	Open  	;
 50              	35              	25              	1408.3300   	100.0000    	130.0000    	0.0000      	Open  	;
 51              	29              	35              	33.2500     	100.0000    	130.0000    	0.0000      	Open  	;
 52              	8               	29              	720.9000    	200.0000    	130.0000    	0.0000      	Open  	;
 53              	42              	11              	441.6900    	250.0000    	130.0000    	0.0000      	Open  	;
 54              	43              	42              	332.9900    	400.0000    	130.0000    	0.0000      	Open  	;
 55              	44              	42              	229.8500    	350.0000    	130.0000    	0.0000      	Open  	;
 56              	45              	46              	500.9200    	100.0000    	130.0000    	0.0000      	Open  	;
 57              	47              	48              	232.0700    	250.0000    	130.0000    	0.0000      	Open  	;
 58              	32              	49              	5.4300      	100.0000    	130.0000    	0.0000      	Open  	;
 59              	46              	32              	66.2400     	100.0000    	130.0000    	0.0000      	Open  	;
 60              	50              	46              	232.1300    	100.0000    	130.0000    	0.0000      	Open  	;
 61              	49              	50              	154.7800    	100.0000    	130.0000    	0.0000      	Open  	;
 62              	48              	49              	645.1000    	100.0000    	130.0000    	0.0000      	Open  	;
 63              	51              	48              	157.8700    	200.0000    	130.0000    	0.0000      	Open  	;
 64              	50              	51              	645.7900    	100.0000    	130.0000    	0.0000      	Open  	;
 65              	52              	50              	206.6900    	100.0000    	130.0000    	0.0000      	Open  	;
 66              	51              	53              	156.7500    	150.0000    	130.0000    	0.0000      	Open  	;
 68              	54              	55              	152.8100    	100.0000    	130.0000    	0.0000      	Open  	;
 70              	56              	47              	52.3700     	250.0000    	130.0000    	0.0000      	Open  	;
 71              	44              	57              	394.6700    	300.0000    	130.0000    	0.0000      	Open  	;
 72              	56              	44              	774.6900    	100.0000    	130.0000    	0.0000      	Open  	;
 73              	57              	56              	435.5800    	200.0000    	130.0000    	0.0000      	Open  	;
 74              	58              	57              	899.6700    	250.0000    	130.0000    	0.0000      	Open  	;
 75              	59              	60              	198.5000    	125.0000    	130.0000    	0.0000      	Open  	;
 76              	55              	61              	1116.1500   	100.0000    	130.0000    	0.0000      	Open  	;
 78              	52              	53              	631.8000    	100.0000    	130.0000    	0.0000      	Open  	;
 79              	45              	52              	350.9700    	100.0000    	130.0000    	0.0000      	Open  	;
 81              	61              	5               	226.0300    	125.0000    	130.0000    	0.0000      	Open  	;
 82              	60              	61              	186.7700    	100.0000    	130.0000    	0.0000      	Open  	;
 83              	58              	60              	337.2400    	100.0000    	130.0000    	0.0000      	Open  	;
 84              	62              	58              	173.0900    	250.0000    	130.0000    	0.0000      	Open  	;
 85              	62              	2               	784.4500    	100.0000    	130.0000    	0.0000      	Open  	;
 86              	59              	62              	86.3900     	200.0000    	130.0000    	0.0000      	Open  	;
 87              	4               	59              	732.9300    	200.0000    	130.0000    	0.0000      	Open  	;
 88              	2               	4               	193.7800    	100.0000    	130.0000    	0.0000      	Open  	;
 89              	65              	6               	1744.2700   	100.0000    	130.0000    	0.0000      	Open  	;
 90              	65              	76              	154.1800    	250.0000    	130.0000    	0.0000      	Open  	;
 92              	86              	45              	1635.6900   	100.0000    	130.0000    	0.0000      	Open  	;
 93              	76              	8               	1072.6900   	250.0000    	130.0000    	0.0000      	Open  	;
 94              	82              	83              	5.0000      	100.0000    	130.0000    	0.0000      	Open  	;
 95              	82              	85              	240.0500    	100.0000    	130.0000    	0.0000      	Open  	;
 96              	22              	85              	841.6300    	100.0000    	130.0000    	0.0000      	Open  	;
 97              	26              	83              	601.5800    	100.0000    	130.0000    	0.0000      	Open  	;
 98              	5               	86              	1600.0000   	100.0000    	130.0000    	0.0000      	Open  	;
 100             	54              	84              	180.0000    	100.0000    	130.0000    	0.0000      	Open  	;
 102             	83              	85              	240.0000    	100.0000    	130.0000    	0.0000      	Open  	;
 103             	43              	87              	10.0000     	150.0000    	130.0000    	0.0000      	Open  	;
 104             	55              	89              	179.5400    	100.0000    	130.0000    	0.0000      	Open  	;
 105             	89              	53              	331.4000    	100.0000    	130.0000    	0.0000      	Open  	;
 106             	55              	88              	332.3500    	100.0000    	130.0000    	0.0000      	Open  	;
 107             	88              	51              	325.0300    	100.0000    	130.0000    	0.0000      	Open  	;
 108             	84              	88              	113.3500    	100.0000    	130.0000    	0.0000      	Open  	;
 109             	88              	89              	150.8200    	100.0000    	130.0000    	0.0000      	Open  	;
 110             	55              	86              	165.4300    	100.0000    	130.0000    	0.0000      	Open  	;
 Pipe1forNode1            1  AN1forNode1        0.1        350        130 1.812534e+04         CV          ;
 Pipe1forNode2            2  AN1forNode2        0.1        350        130 1.175469e+04         CV          ;
 Pipe1forNode3            3  AN1forNode3        0.1        350        130 2.513709e+04         CV          ;