[TITLE]
Pescara -- Bragalli, D'Ambrosio, Lee, Lodi, Toth (2008)
Originally presented by:
Bragalli, C., D'Ambrosio, C., Lee, J., Lodi, A., & Toth, P. (2012, June). On the optimal design of water distribution networks: a practical MINLP approach. Optimization and Engineering, 13 (2), 219-246.
Converted to represent an intermittent water supply using EPANET's PDA method
Details of this specific conversion process are included in:
PLACEHOLDER

[JUNCTIONS]
;ID              	Elev        	Demand      	Pattern
1	2.9	30.02988712	                	;
2	5	37.2898859	                	;
3	3.5	25.49994248	                	;
4	3.8	25.49994248	                	;
5	2.2	36.35993054	                	;
6	7	4.889991486	                	;
7	6.5	0	                	;
8	5.2	100.7999366	                	;
9	4.3	13.13998192	                	;
10	5.2	49.20002349	                	;
11	28	89.30984955	                	;
12	3.2	1.469985687	                	;
13	3.2	22.47004441	                	;
14	19.2	18.18007772	                	;
17	4	8.310057561	                	;
18	3.5	15.09000739	                	;
19	2.8	14.43004101	                	;
20	2.7	63.1201355	                	;
21	1.8	50.82014373	                	;
22	2.1	31.23006289	                	;
23	2	6.509958665	                	;
24	18.7	19.64992927	                	;
25	3.2	31.23006289	                	;
26	1.6	8.339976009	                	;
27	3.8	15.96005854	                	;
28	4.3	10.89005703	                	;
29	3.6	98.99978639	                	;
30	3.2	18.00009084	                	;
31	2.8	19.19992539	                	;
32	1.8	8.880044123	                	;
33	3.8	9.27006374	                	;
34	2.9	9.27006374	                	;
35	3.7	26.37003442	                	;
36	2.1	5.03996131	                	;
37	6.7	37.92002306	                	;
38	6.7	37.92002306	                	;
39	4.2	37.92002306	                	;
40	2.9	16.68006524	                	;
41	2.9	7.800013091	                	;
42	28.5	13.71001621	                	;
44	27.3	22.67998561	                	;
45	1.1	18.62992995	                	;
46	2.5	9.27006374	                	;
47	2.8	1.770003347	                	;
48	3.3	37.89011587	                	;
49	1.8	10.23002822	                	;
50	1.8	39.63012075	                	;
51	1.6	11.60999465	                	;
52	1.8	19.29008355	                	;
53	1.6	7.649942697	                	;
54	3.3	0	                	;
55	2.5	33.90000941	                	;
56	2.8	11.97003783	                	;
57	3.2	23.25008138	                	;
58	3.6	5.730046836	                	;
59	3.8	2.64002993	                	;
60	3.1	15.42002127	                	;
61	3	15.42002127	                	;
62	4.2	22.31995903	                	;
76	4.2	0	                	;
82	2.1	0.029996241	                	;
83	2.1	0	                	;
84	3.3	1.620020066	                	;
85	2.1	1.110020006	                	;
86	1.5	19.38004166	                	;
87	19.2	74.99990537	                	;
88	2.1	6.450033334	                	;
89	1.5	5.250042195	                	;

[RESERVOIRS]
;ID              	Head        	Pattern
 15              	57.0000     	                	;
 43              	53.0800     	                	;
 65              	55.0000     	                	;

[TANKS]
;ID              	Elevation   	InitLevel   	MinLevel    	MaxLevel    	Diameter    	MinVol      	VolCurve        	Overflow

[PIPES]
;ID              	Node1           	Node2           	Length      	Diameter    	Roughness   	MinorLoss   	Status
 1               	1               	2               	977.3600    	100.0000    	130.0000    	0.0000      	Open  	;
 2               	3               	4               	443.1700    	150.0000    	130.0000    	0.0000      	Open  	;
 3               	3               	5               	1410.7700   	100.0000    	130.0000    	0.0000      	Open  	;
 4               	3               	1               	269.6100    	125.0000    	130.0000    	0.0000      	Open  	;
 5               	6               	7               	116.5200    	100.0000    	130.0000    	0.0000      	Open  	;
 6               	6               	8               	203.0600    	100.0000    	130.0000    	0.0000      	Open  	;
 7               	9               	6               	2309.1400   	100.0000    	130.0000    	0.0000      	Open  	;
 8               	10              	11              	1479.9800   	150.0000    	130.0000    	0.0000      	Open  	;
 11              	15              	14              	43.9700     	350.0000    	130.0000    	0.0000      	Open  	;
 12              	13              	17              	589.1600    	200.0000    	130.0000    	0.0000      	Open  	;
 13              	18              	13              	618.5300    	200.0000    	130.0000    	0.0000      	Open  	;
 14              	18              	19              	341.1000    	200.0000    	130.0000    	0.0000      	Open  	;
 15              	20              	18              	341.9200    	100.0000    	130.0000    	0.0000      	Open  	;
 16              	21              	20              	434.2400    	100.0000    	130.0000    	0.0000      	Open  	;
 17              	22              	23              	240.5900    	100.0000    	130.0000    	0.0000      	Open  	;
 18              	24              	25              	957.4400    	200.0000    	130.0000    	0.0000      	Open  	;
 19              	14              	24              	171.0400    	350.0000    	130.0000    	0.0000      	Open  	;
 20              	24              	17              	235.5700    	300.0000    	130.0000    	0.0000      	Open  	;
 21              	26              	17              	3.5900      	200.0000    	130.0000    	0.0000      	Open  	;
 22              	26              	27              	324.3600    	200.0000    	130.0000    	0.0000      	Open  	;
 24              	21              	22              	749.7400    	100.0000    	130.0000    	0.0000      	Open  	;
 25              	23              	21              	639.7000    	100.0000    	130.0000    	0.0000      	Open  	;
 26              	27              	23              	422.9500    	100.0000    	130.0000    	0.0000      	Open  	;
 27              	20              	27              	843.5200    	125.0000    	130.0000    	0.0000      	Open  	;
 28              	19              	20              	609.2300    	100.0000    	130.0000    	0.0000      	Open  	;
 29              	28              	29              	179.0400    	150.0000    	130.0000    	0.0000      	Open  	;
 30              	28              	30              	570.9000    	100.0000    	130.0000    	0.0000      	Open  	;
 31              	30              	28              	575.7300    	100.0000    	130.0000    	0.0000      	Open  	;
 32              	31              	32              	250.2800    	100.0000    	130.0000    	0.0000      	Open  	;
 33              	30              	33              	442.1100    	100.0000    	130.0000    	0.0000      	Open  	;
 34              	34              	30              	762.3500    	100.0000    	130.0000    	0.0000      	Open  	;
 35              	35              	36              	1124.9000   	100.0000    	130.0000    	0.0000      	Open  	;
 36              	31              	11              	1903.7500   	100.0000    	130.0000    	0.0000      	Open  	;
 37              	37              	31              	125.5100    	125.0000    	130.0000    	0.0000      	Open  	;
 38              	37              	38              	121.2700    	200.0000    	130.0000    	0.0000      	Open  	;
 39              	19              	38              	55.3200     	200.0000    	130.0000    	0.0000      	Open  	;
 41              	40              	39              	424.8600    	100.0000    	130.0000    	0.0000      	Open  	;
 42              	40              	41              	72.8000     	100.0000    	130.0000    	0.0000      	Open  	;
 43              	9               	40              	554.0800    	100.0000    	130.0000    	0.0000      	Open  	;
 44              	33              	9               	305.5300    	100.0000    	130.0000    	0.0000      	Open  	;
 45              	41              	33              	568.3500    	100.0000    	130.0000    	0.0000      	Open  	;
 46              	34              	41              	63.8100     	100.0000    	130.0000    	0.0000      	Open  	;
 47              	39              	34              	310.7600    	100.0000    	130.0000    	0.0000      	Open  	;
 48              	12              	39              	1217.1700   	200.0000    	130.0000    	0.0000      	Open  	;
 49              	25              	12              	365.8200    	150.0000    	130.0000    	0.0000      	Open  	;
 50              	35              	25              	1408.3300   	100.0000    	130.0000    	0.0000      	Open  	;
 51              	29              	35              	33.2500     	100.0000    	130.0000    	0.0000      	Open  	;
 52              	8               	29              	720.9000    	200.0000    	130.0000    	0.0000      	Open  	;
 53              	42              	11              	441.6900    	250.0000    	130.0000    	0.0000      	Open  	;
 54              	43              	42              	332.9900    	400.0000    	130.0000    	0.0000      	Open  	;
 55              	44              	42              	229.8500    	350.0000    	130.0000    	0.0000      	Open  	;
 56              	45              	46              	500.9200    	100.0000    	130.0000    	0.0000      	Open  	;
 57              	47              	48              	232.0700    	250.0000    	130.0000    	0.0000      	Open  	;
 58              	32              	49              	5.4300      	100.0000    	130.0000    	0.0000      	Open  	;
 59              	46              	32              	66.2400     	100.0000    	130.0000    	0.0000      	Open  	;
 60              	50              	46              	232.1300    	100.0000    	130.0000    	0.0000      	Open  	;
 61              	49              	50              	154.7800    	100.0000    	130.0000    	0.0000      	Open  	;
 62              	48              	49              	645.1000    	100.0000    	130.0000    	0.0000      	Open  	;
 63              	51              	48              	157.8700    	200.0000    	130.0000    	0.0000      	Open  	;
 64              	50              	51              	645.7900    	100.0000    	130.0000    	0.0000      	Open  	;
 65              	52              	50              	206.6900    	100.0000    	130.0000    	0.0000      	Open  	;
 66              	51              	53              	156.7500    	150.0000    	130.0000    	0.0000      	Open  	;
 68              	54              	55              	152.8100    	100.0000    	130.0000    	0.0000      	Open  	;
 70              	56              	47              	52.3700     	250.0000    	130.0000    	0.0000      	Open  	;
 71              	44              	57              	394.6700    	300.0000    	130.0000    	0.0000      	Open  	;
 72              	56              	44              	774.6900    	100.0000    	130.0000    	0.0000      	Open  	;
 73              	57              	56              	435.5800    	200.0000    	130.0000    	0.0000      	Open  	;
 74              	58              	57              	899.6700    	250.0000    	130.0000    	0.0000      	Open  	;
 75              	59              	60              	198.5000    	125.0000    	130.0000    	0.0000      	Open  	;
 76              	55              	61              	1116.1500   	100.0000    	130.0000    	0.0000      	Open  	;
 78              	52              	53              	631.8000    	100.0000    	130.0000    	0.0000      	Open  	;
 79              	45              	52              	350.9700    	100.0000    	130.0000    	0.0000      	Open  	;
 81              	61              	5               	226.0300    	125.0000    	130.0000    	0.0000      	Open  	;
 82              	60              	61              	186.7700    	100.0000    	130.0000    	0.0000      	Open  	;
 83              	58              	60              	337.2400    	100.0000    	130.0000    	0.0000      	Open  	;
 84              	62              	58              	173.0900    	250.0000    	130.0000    	0.0000      	Open  	;
 85              	62              	2               	784.4500    	100.0000    	130.0000    	0.0000      	Open  	;
 86              	59              	62              	86.3900     	200.0000    	130.0000    	0.0000      	Open  	;
 87              	4               	59              	732.9300    	200.0000    	130.0000    	0.0000      	Open  	;
 88              	2               	4               	193.7800    	100.0000    	130.0000    	0.0000      	Open  	;
 89              	65              	6               	1744.2700   	100.0000    	130.0000    	0.0000      	Open  	;
 90              	65              	76              	154.1800    	250.0000    	130.0000    	0.0000      	Open  	;
 92              	86              	45              	1635.6900   	100.0000    	130.0000    	0.0000      	Open  	;
 93              	76              	8               	1072.6900   	250.0000    	130.0000    	0.0000      	Open  	;
 94              	82              	83              	5.0000      	100.0000    	130.0000    	0.0000      	Open  	;
 95              	82              	85              	240.0500    	100.0000    	130.0000    	0.0000      	Open  	;
 96              	22              	85              	841.6300    	100.0000    	130.0000    	0.0000      	Open  	;
 97              	26              	83              	601.5800    	100.0000    	130.0000    	0.0000      	Open  	;
 98              	5               	86              	1600.0000   	100.0000    	130.0000    	0.0000      	Open  	;
 100             	54              	84              	180.0000    	100.0000    	130.0000    	0.0000      	Open  	;
 102             	83              	85              	240.0000    	100.0000    	130.0000    	0.0000      	Open  	;
 103             	43              	87              	10.0000     	150.0000    	130.0000    	0.0000      	Open  	;
 104             	55              	89              	179.5400    	100.0000    	130.0000    	0.0000      	Open  	;
 105             	89              	53              	331.4000    	100.0000    	130.0000    	0.0000      	Open  	;
 106             	55              	88              	332.3500    	100.0000    	130.0000    	0.0000      	Open  	;
 107             	88              	51              	325.0300    	100.0000    	130.0000    	0.0000      	Open  	;
 108             	84              	88              	113.3500    	100.0000    	130.0000    	0.0000      	Open  	;
 109             	88              	89              	150.8200    	100.0000    	130.0000    	0.0000      	Open  	;
 110             	55              	86              	165.4300    	100.0000    	130.0000    	0.0000      	Open  	;

[PUMPS]
;ID              	Node1           	Node2           	Parameters

[VALVES]
;ID              	Node1           	Node2           	Diameter    	Type	Setting     	MinorLoss

[TAGS]

[DEMANDS]
;Junction        	Demand      	Pattern         	Category

[STATUS]
;ID              	Status/Setting

[PATTERNS]
;ID              	Multipliers

[CURVES]
;ID              	X-Value     	Y-Value

[CONTROLS]




[RULES]





[ENERGY]
 Global Efficiency  	75.0000
 Global Price       	0
 Demand Charge      	0.0000

[EMITTERS]
;Junction        	Coefficient

[QUALITY]
;Node            	InitQual

[SOURCES]
;Node            	Type        	Quality     	Pattern

[REACTIONS]
;Type     	Pipe/Tank       	Coefficient


[REACTIONS]
 Order Bulk            	1.00
 Order Tank            	1.00
 Order Wall            	1
 Global Bulk           	0.000000
 Global Wall           	0.000000
 Limiting Potential    	0
 Roughness Correlation 	0

[MIXING]
;Tank            	Model

[TIMES]
 Duration           	4:00
 Hydraulic Timestep 	1:00
 Quality Timestep   	0:01
 Pattern Timestep   	2:00
 Pattern Start      	0:00
 Report Timestep    	0:01
 Report Start       	0:00
 Start ClockTime    	0:00:00
 Statistic          	NONE

[REPORT]
 Status             	No
 Summary            	No
 Page               	0

[OPTIONS]
 Units              	LPS
 Headloss           	H-W
 Specific Gravity   	1.000000
 Viscosity          	1.000000
 Trials             	40
 Accuracy           	0.00100000
 CHECKFREQ          	2
 MAXCHECK           	10
 DAMPLIMIT          	0.00000000
 Unbalanced         	Continue 10
 Pattern            	1
 Demand Multiplier  	1.0000
 Demand Model       	PDA
 Minimum Pressure   	0
 Required Pressure  	10
 Pressure Exponent  	0.5
 Emitter Exponent   	0.5000
 Quality            	Chlorine mg/L
 Diffusivity        	1.000000
 Tolerance          	0.01000000

[COORDINATES]
;Node            	X-Coord           	Y-Coord
1	0	2803.81
2	706.18	2577.06
3	269.31	2790.75
4	711.75	2769.81
5	1350.56	3096.5
6	4763.87	165.94
7	4669.31	114.75
8	4964.75	195.69
9	3679.31	1350.25
10	3364.81	1460.19
11	2537.87	1614.75
12	5106.81	1722.81
13	5041	2225.25
14	5899.93	2425.31
17	5549	2513.12
18	4424	2268.37
19	4090.56	2299.62
20	4429.12	2610
21	4638.18	2982.25
22	5274.06	3218.69
23	5277.87	2981.44
24	5743.12	2464.75
25	5448.93	1594.25
26	5552.18	2514.75
27	5270.81	2558.56
28	4558.62	859.81
29	4736.75	876.37
30	4295.81	1219.69
31	3807.25	2384.19
32	3798.31	2628.56
33	3974.43	1288.62
34	4013.75	1848.37
35	4725.12	907.56
36	4274.75	1853.12
37	3917.56	2330.5
38	4035.43	2304.06
39	4068.37	2154.25
40	3878.43	1866.75
41	3950.43	1856.37
42	2463.43	2042.75
44	2432.12	2269.31
45	4121.68	2940.06
46	3864.5	2626.69
47	2921.18	2686.75
48	3150	2662.5
49	3794.18	2629.31
50	3793	2784
51	3151.31	2818.44
52	3788.5	2990.62
53	3157.06	2975.06
54	2647.25	2841.5
55	2646.31	2989.19
56	2874.56	2662.87
57	2514.37	2603.75
58	1615.56	2642
59	1444.06	2741.44
60	1531.87	2857.62
61	1536.87	3044.31
62	1442.93	2655.06
76	5940.25	133.87
82	5871.12	3074.69
83	5875.75	3072.81
84	2825.81	2720
85	5965.18	3295.5
86	2825.81	3149.62
87	2145.81	1962.31
88	2825.81	2833.37
89	2825.81	2984.19
15	5909.68	2382.37
43	2155.81	1962.31
65	5985.31	0

[VERTICES]
;Link            	X-Coord           	Y-Coord

[LABELS]
;X-Coord             Y-Coord             Label & Anchor Node

[BACKDROP]
  DIMENSIONS  	656280.190        	960321.300        	662939.250        	963953.020
 UNITS          	None
 FILE
 OFFSET         	0.00            	0.00

[END]
