[TITLE]
Pescara -- Bragalli, D'Ambrosio, Lee, Lodi, Toth (2008)
Originally presented by:
Bragalli, C., D'Ambrosio, C., Lee, J., Lodi, A., & Toth, P. (2012, June). On the optimal design of water distribution networks: a practical MINLP approach. Optimization and Engineering, 13 (2), 219-246.
Converted to represent an intermittent water supply using EPANET's PDA method
Details of this specific conversion process are included in:
PLACEHOLDER

[JUNCTIONS]
;ID              	Elev        	Demand      	Pattern
         1        2.9          0                     ;
         2        5.0          0                     ;
         3        3.5          0                     ;
         4        3.8          0                     ;
         5        2.2          0                     ;
         6        7.0          0                     ;
         7        6.5          0                     ;
         8        5.2          0                     ;
         9        4.3          0                     ;
        10        5.2          0                     ;
        11       28.0          0                     ;
        12        3.2          0                     ;
        13        3.2          0                     ;
        14       19.2          0                     ;
        17        4.0          0                     ;
        18        3.5          0                     ;
        19        2.8          0                     ;
        20        2.7          0                     ;
        21        1.8          0                     ;
        22        2.1          0                     ;
        23        2.0          0                     ;
        24       18.7          0                     ;
        25        3.2          0                     ;
        26        1.6          0                     ;
        27        3.8          0                     ;
        28        4.3          0                     ;
        29        3.6          0                     ;
        30        3.2          0                     ;
        31        2.8          0                     ;
        32        1.8          0                     ;
        33        3.8          0                     ;
        34        2.9          0                     ;
        35        3.7          0                     ;
        36        2.1          0                     ;
        37        6.7          0                     ;
        38        6.7          0                     ;
        39        4.2          0                     ;
        40        2.9          0                     ;
        41        2.9          0                     ;
        42       28.5          0                     ;
        44       27.3          0                     ;
        45        1.1          0                     ;
        46        2.5          0                     ;
        47        2.8          0                     ;
        48        3.3          0                     ;
        49        1.8          0                     ;
        50        1.8          0                     ;
        51        1.6          0                     ;
        52        1.8          0                     ;
        53        1.6          0                     ;
        54        3.3          0                     ;
        55        2.5          0                     ;
        56        2.8          0                     ;
        57        3.2          0                     ;
        58        3.6          0                     ;
        59        3.8          0                     ;
        60        3.1          0                     ;
        61        3.0          0                     ;
        62        4.2          0                     ;
        76        4.2          0                     ;
        82        2.1          0                     ;
        83        2.1          0                     ;
        84        3.3          0                     ;
        85        2.1          0                     ;
        86        1.5          0                     ;
        87       19.2          0                     ;
        88        2.1          0                     ;
        89        1.5          0                     ;
 ANforNode1        2.9          0                     ;
 ANforNode2        5.0          0                     ;
 ANforNode3        3.5          0                     ;
 ANforNode4        3.8          0                     ;
 ANforNode5        2.2          0                     ;
 ANforNode6        7.0          0                     ;
 ANforNode8        5.2          0                     ;
 ANforNode9        4.3          0                     ;
ANforNode10        5.2          0                     ;
ANforNode11       28.0          0                     ;
ANforNode12        3.2          0                     ;
ANforNode13        3.2          0                     ;
ANforNode14       19.2          0                     ;
ANforNode17        4.0          0                     ;
ANforNode18        3.5          0                     ;
ANforNode19        2.8          0                     ;
ANforNode20        2.7          0                     ;
ANforNode21        1.8          0                     ;
ANforNode22        2.1          0                     ;
ANforNode23        2.0          0                     ;
ANforNode24       18.7          0                     ;
ANforNode25        3.2          0                     ;
ANforNode26        1.6          0                     ;
ANforNode27        3.8          0                     ;
ANforNode28        4.3          0                     ;
ANforNode29        3.6          0                     ;
ANforNode30        3.2          0                     ;
ANforNode31        2.8          0                     ;
ANforNode32        1.8          0                     ;
ANforNode33        3.8          0                     ;
ANforNode34        2.9          0                     ;
ANforNode35        3.7          0                     ;
ANforNode36        2.1          0                     ;
ANforNode37        6.7          0                     ;
ANforNode38        6.7          0                     ;
ANforNode39        4.2          0                     ;
ANforNode40        2.9          0                     ;
ANforNode41        2.9          0                     ;
ANforNode42       28.5          0                     ;
ANforNode44       27.3          0                     ;
ANforNode45        1.1          0                     ;
ANforNode46        2.5          0                     ;
ANforNode47        2.8          0                     ;
ANforNode48        3.3          0                     ;
ANforNode49        1.8          0                     ;
ANforNode50        1.8          0                     ;
ANforNode51        1.6          0                     ;
ANforNode52        1.8          0                     ;
ANforNode53        1.6          0                     ;
ANforNode55        2.5          0                     ;
ANforNode56        2.8          0                     ;
ANforNode57        3.2          0                     ;
ANforNode58        3.6          0                     ;
ANforNode59        3.8          0                     ;
ANforNode60        3.1          0                     ;
ANforNode61        3.0          0                     ;
ANforNode62        4.2          0                     ;
ANforNode82        2.1          0                     ;
ANforNode84        3.3          0                     ;
ANforNode85        2.1          0                     ;
ANforNode86        1.5          0                     ;
ANforNode87       19.2          0                     ;
ANforNode88        2.1          0                     ;
ANforNode89        1.5          0                     ;


[RESERVOIRS]
;ID              	Head        	Pattern
 15              	57.0000     	                	;
 43              	53.0800     	                	;
 65              	55.0000     	                	;
 AR1  2.9      ;
 AR2  5.0      ;
 AR3  3.5      ;
 AR4  3.8      ;
 AR5  2.2      ;
 AR6  7.0      ;
 AR8  5.2      ;
 AR9  4.3      ;
AR10  5.2      ;
AR11 28.0      ;
AR12  3.2      ;
AR13  3.2      ;
AR14 19.2      ;
AR17  4.0      ;
AR18  3.5      ;
AR19  2.8      ;
AR20  2.7      ;
AR21  1.8      ;
AR22  2.1      ;
AR23  2.0      ;
AR24 18.7      ;
AR25  3.2      ;
AR26  1.6      ;
AR27  3.8      ;
AR28  4.3      ;
AR29  3.6      ;
AR30  3.2      ;
AR31  2.8      ;
AR32  1.8      ;
AR33  3.8      ;
AR34  2.9      ;
AR35  3.7      ;
AR36  2.1      ;
AR37  6.7      ;
AR38  6.7      ;
AR39  4.2      ;
AR40  2.9      ;
AR41  2.9      ;
AR42 28.5      ;
AR44 27.3      ;
AR45  1.1      ;
AR46  2.5      ;
AR47  2.8      ;
AR48  3.3      ;
AR49  1.8      ;
AR50  1.8      ;
AR51  1.6      ;
AR52  1.8      ;
AR53  1.6      ;
AR55  2.5      ;
AR56  2.8      ;
AR57  3.2      ;
AR58  3.6      ;
AR59  3.8      ;
AR60  3.1      ;
AR61  3.0      ;
AR62  4.2      ;
AR82  2.1      ;
AR84  3.3      ;
AR85  2.1      ;
AR86  1.5      ;
AR87 19.2      ;
AR88  2.1      ;
AR89  1.5      ;


[TANKS]
;ID              	Elevation   	InitLevel   	MinLevel    	MaxLevel    	Diameter    	MinVol      	VolCurve        	Overflow

[PIPES]
;ID              	Node1           	Node2           	Length      	Diameter    	Roughness   	MinorLoss   	Status
 1               	1               	2               	977.3600    	100.0000    	130.0000    	0.0000      	Open  	;
 2               	3               	4               	443.1700    	150.0000    	130.0000    	0.0000      	Open  	;
 3               	3               	5               	1410.7700   	100.0000    	130.0000    	0.0000      	Open  	;
 4               	3               	1               	269.6100    	125.0000    	130.0000    	0.0000      	Open  	;
 5               	6               	7               	116.5200    	100.0000    	130.0000    	0.0000      	Open  	;
 6               	6               	8               	203.0600    	100.0000    	130.0000    	0.0000      	Open  	;
 7               	9               	6               	2309.1400   	100.0000    	130.0000    	0.0000      	Open  	;
 8               	10              	11              	1479.9800   	150.0000    	130.0000    	0.0000      	Open  	;
 11              	15              	14              	43.9700     	350.0000    	130.0000    	0.0000      	Open  	;
 12              	13              	17              	589.1600    	200.0000    	130.0000    	0.0000      	Open  	;
 13              	18              	13              	618.5300    	200.0000    	130.0000    	0.0000      	Open  	;
 14              	18              	19              	341.1000    	200.0000    	130.0000    	0.0000      	Open  	;
 15              	20              	18              	341.9200    	100.0000    	130.0000    	0.0000      	Open  	;
 16              	21              	20              	434.2400    	100.0000    	130.0000    	0.0000      	Open  	;
 17              	22              	23              	240.5900    	100.0000    	130.0000    	0.0000      	Open  	;
 18              	24              	25              	957.4400    	200.0000    	130.0000    	0.0000      	Open  	;
 19              	14              	24              	171.0400    	350.0000    	130.0000    	0.0000      	Open  	;
 20              	24              	17              	235.5700    	300.0000    	130.0000    	0.0000      	Open  	;
 21              	26              	17              	3.5900      	200.0000    	130.0000    	0.0000      	Open  	;
 22              	26              	27              	324.3600    	200.0000    	130.0000    	0.0000      	Open  	;
 24              	21              	22              	749.7400    	100.0000    	130.0000    	0.0000      	Open  	;
 25              	23              	21              	639.7000    	100.0000    	130.0000    	0.0000      	Open  	;
 26              	27              	23              	422.9500    	100.0000    	130.0000    	0.0000      	Open  	;
 27              	20              	27              	843.5200    	125.0000    	130.0000    	0.0000      	Open  	;
 28              	19              	20              	609.2300    	100.0000    	130.0000    	0.0000      	Open  	;
 29              	28              	29              	179.0400    	150.0000    	130.0000    	0.0000      	Open  	;
 30              	28              	30              	570.9000    	100.0000    	130.0000    	0.0000      	Open  	;
 31              	30              	28              	575.7300    	100.0000    	130.0000    	0.0000      	Open  	;
 32              	31              	32              	250.2800    	100.0000    	130.0000    	0.0000      	Open  	;
 33              	30              	33              	442.1100    	100.0000    	130.0000    	0.0000      	Open  	;
 34              	34              	30              	762.3500    	100.0000    	130.0000    	0.0000      	Open  	;
 35              	35              	36              	1124.9000   	100.0000    	130.0000    	0.0000      	Open  	;
 36              	31              	11              	1903.7500   	100.0000    	130.0000    	0.0000      	Open  	;
 37              	37              	31              	125.5100    	125.0000    	130.0000    	0.0000      	Open  	;
 38              	37              	38              	121.2700    	200.0000    	130.0000    	0.0000      	Open  	;
 39              	19              	38              	55.3200     	200.0000    	130.0000    	0.0000      	Open  	;
 41              	40              	39              	424.8600    	100.0000    	130.0000    	0.0000      	Open  	;
 42              	40              	41              	72.8000     	100.0000    	130.0000    	0.0000      	Open  	;
 43              	9               	40              	554.0800    	100.0000    	130.0000    	0.0000      	Open  	;
 44              	33              	9               	305.5300    	100.0000    	130.0000    	0.0000      	Open  	;
 45              	41              	33              	568.3500    	100.0000    	130.0000    	0.0000      	Open  	;
 46              	34              	41              	63.8100     	100.0000    	130.0000    	0.0000      	Open  	;
 47              	39              	34              	310.7600    	100.0000    	130.0000    	0.0000      	Open  	;
 48              	12              	39              	1217.1700   	200.0000    	130.0000    	0.0000      	Open  	;
 49              	25              	12              	365.8200    	150.0000    	130.0000    	0.0000      	Open  	;
 50              	35              	25              	1408.3300   	100.0000    	130.0000    	0.0000      	Open  	;
 51              	29              	35              	33.2500     	100.0000    	130.0000    	0.0000      	Open  	;
 52              	8               	29              	720.9000    	200.0000    	130.0000    	0.0000      	Open  	;
 53              	42              	11              	441.6900    	250.0000    	130.0000    	0.0000      	Open  	;
 54              	43              	42              	332.9900    	400.0000    	130.0000    	0.0000      	Open  	;
 55              	44              	42              	229.8500    	350.0000    	130.0000    	0.0000      	Open  	;
 56              	45              	46              	500.9200    	100.0000    	130.0000    	0.0000      	Open  	;
 57              	47              	48              	232.0700    	250.0000    	130.0000    	0.0000      	Open  	;
 58              	32              	49              	5.4300      	100.0000    	130.0000    	0.0000      	Open  	;
 59              	46              	32              	66.2400     	100.0000    	130.0000    	0.0000      	Open  	;
 60              	50              	46              	232.1300    	100.0000    	130.0000    	0.0000      	Open  	;
 61              	49              	50              	154.7800    	100.0000    	130.0000    	0.0000      	Open  	;
 62              	48              	49              	645.1000    	100.0000    	130.0000    	0.0000      	Open  	;
 63              	51              	48              	157.8700    	200.0000    	130.0000    	0.0000      	Open  	;
 64              	50              	51              	645.7900    	100.0000    	130.0000    	0.0000      	Open  	;
 65              	52              	50              	206.6900    	100.0000    	130.0000    	0.0000      	Open  	;
 66              	51              	53              	156.7500    	150.0000    	130.0000    	0.0000      	Open  	;
 68              	54              	55              	152.8100    	100.0000    	130.0000    	0.0000      	Open  	;
 70              	56              	47              	52.3700     	250.0000    	130.0000    	0.0000      	Open  	;
 71              	44              	57              	394.6700    	300.0000    	130.0000    	0.0000      	Open  	;
 72              	56              	44              	774.6900    	100.0000    	130.0000    	0.0000      	Open  	;
 73              	57              	56              	435.5800    	200.0000    	130.0000    	0.0000      	Open  	;
 74              	58              	57              	899.6700    	250.0000    	130.0000    	0.0000      	Open  	;
 75              	59              	60              	198.5000    	125.0000    	130.0000    	0.0000      	Open  	;
 76              	55              	61              	1116.1500   	100.0000    	130.0000    	0.0000      	Open  	;
 78              	52              	53              	631.8000    	100.0000    	130.0000    	0.0000      	Open  	;
 79              	45              	52              	350.9700    	100.0000    	130.0000    	0.0000      	Open  	;
 81              	61              	5               	226.0300    	125.0000    	130.0000    	0.0000      	Open  	;
 82              	60              	61              	186.7700    	100.0000    	130.0000    	0.0000      	Open  	;
 83              	58              	60              	337.2400    	100.0000    	130.0000    	0.0000      	Open  	;
 84              	62              	58              	173.0900    	250.0000    	130.0000    	0.0000      	Open  	;
 85              	62              	2               	784.4500    	100.0000    	130.0000    	0.0000      	Open  	;
 86              	59              	62              	86.3900     	200.0000    	130.0000    	0.0000      	Open  	;
 87              	4               	59              	732.9300    	200.0000    	130.0000    	0.0000      	Open  	;
 88              	2               	4               	193.7800    	100.0000    	130.0000    	0.0000      	Open  	;
 89              	65              	6               	1744.2700   	100.0000    	130.0000    	0.0000      	Open  	;
 90              	65              	76              	154.1800    	250.0000    	130.0000    	0.0000      	Open  	;
 92              	86              	45              	1635.6900   	100.0000    	130.0000    	0.0000      	Open  	;
 93              	76              	8               	1072.6900   	250.0000    	130.0000    	0.0000      	Open  	;
 94              	82              	83              	5.0000      	100.0000    	130.0000    	0.0000      	Open  	;
 95              	82              	85              	240.0500    	100.0000    	130.0000    	0.0000      	Open  	;
 96              	22              	85              	841.6300    	100.0000    	130.0000    	0.0000      	Open  	;
 97              	26              	83              	601.5800    	100.0000    	130.0000    	0.0000      	Open  	;
 98              	5               	86              	1600.0000   	100.0000    	130.0000    	0.0000      	Open  	;
 100             	54              	84              	180.0000    	100.0000    	130.0000    	0.0000      	Open  	;
 102             	83              	85              	240.0000    	100.0000    	130.0000    	0.0000      	Open  	;
 103             	43              	87              	10.0000     	150.0000    	130.0000    	0.0000      	Open  	;
 104             	55              	89              	179.5400    	100.0000    	130.0000    	0.0000      	Open  	;
 105             	89              	53              	331.4000    	100.0000    	130.0000    	0.0000      	Open  	;
 106             	55              	88              	332.3500    	100.0000    	130.0000    	0.0000      	Open  	;
 107             	88              	51              	325.0300    	100.0000    	130.0000    	0.0000      	Open  	;
 108             	84              	88              	113.3500    	100.0000    	130.0000    	0.0000      	Open  	;
 109             	88              	89              	150.8200    	100.0000    	130.0000    	0.0000      	Open  	;
 110             	55              	86              	165.4300    	100.0000    	130.0000    	0.0000      	Open  	;
 Pipe1forNode1  ANforNode1        AR1        0.1        350        130 1.812534e+04         CV          ;
 Pipe1forNode2  ANforNode2        AR2        0.1        350        130 1.175469e+04         CV          ;
 Pipe1forNode3  ANforNode3        AR3        0.1        350        130 2.513709e+04         CV          ;
 Pipe1forNode4  ANforNode4        AR4        0.1        350        130 2.513709e+04         CV          ;
 Pipe1forNode5  ANforNode5        AR5        0.1        350        130 1.236367e+04         CV          ;
 Pipe1forNode6  ANforNode6        AR6        0.1        350        130 6.835610e+05         CV          ;
 Pipe1forNode8  ANforNode8        AR8        0.1        350        130 1.608692e+03         CV          ;
 Pipe1forNode9  ANforNode9        AR9        0.1        350        130 9.466816e+04         CV          ;
Pipe1forNode10 ANforNode10       AR10        0.1        350        130 6.752473e+03         CV          ;
Pipe1forNode11 ANforNode11       AR11        0.1        350        130 2.049249e+03         CV          ;
Pipe1forNode12 ANforNode12       AR12        0.1        350        130 7.564274e+06         CV          ;
Pipe1forNode13 ANforNode13       AR13        0.1        350        130 3.237320e+04         CV          ;
Pipe1forNode14 ANforNode14       AR14        0.1        350        130 4.945406e+04         CV          ;
Pipe1forNode17 ANforNode17       AR17        0.1        350        130 2.366930e+05         CV          ;
Pipe1forNode18 ANforNode18       AR18        0.1        350        130 7.178183e+04         CV          ;
Pipe1forNode19 ANforNode19       AR19        0.1        350        130 7.849795e+04         CV          ;
Pipe1forNode20 ANforNode20       AR20        0.1        350        130 4.102585e+03         CV          ;
Pipe1forNode21 ANforNode21       AR21        0.1        350        130 6.328804e+03         CV          ;
Pipe1forNode22 ANforNode22       AR22        0.1        350        130 1.675899e+04         CV          ;
Pipe1forNode23 ANforNode23       AR23        0.1        350        130 3.856888e+05         CV          ;
Pipe1forNode24 ANforNode24       AR24        0.1        350        130 4.233226e+04         CV          ;
Pipe1forNode25 ANforNode25       AR25        0.1        350        130 1.675899e+04         CV          ;
Pipe1forNode26 ANforNode26       AR26        0.1        350        130 2.349978e+05         CV          ;
Pipe1forNode27 ANforNode27       AR27        0.1        350        130 6.416888e+04         CV          ;
Pipe1forNode28 ANforNode28       AR28        0.1        350        130 1.378266e+05         CV          ;
Pipe1forNode29 ANforNode29       AR29        0.1        350        130 1.667727e+03         CV          ;
Pipe1forNode30 ANforNode30       AR30        0.1        350        130 5.044801e+04         CV          ;
Pipe1forNode31 ANforNode31       AR31        0.1        350        130 4.433987e+04         CV          ;
Pipe1forNode32 ANforNode32       AR32        0.1        350        130 2.072828e+05         CV          ;
Pipe1forNode33 ANforNode33       AR33        0.1        350        130 1.902077e+05         CV          ;
Pipe1forNode34 ANforNode34       AR34        0.1        350        130 1.902077e+05         CV          ;
Pipe1forNode35 ANforNode35       AR35        0.1        350        130 2.350564e+04         CV          ;
Pipe1forNode36 ANforNode36       AR36        0.1        350        130 6.434859e+05         CV          ;
Pipe1forNode37 ANforNode37       AR37        0.1        350        130 1.136727e+04         CV          ;
Pipe1forNode38 ANforNode38       AR38        0.1        350        130 1.136727e+04         CV          ;
Pipe1forNode39 ANforNode39       AR39        0.1        350        130 1.136727e+04         CV          ;
Pipe1forNode40 ANforNode40       AR40        0.1        350        130 5.874866e+04         CV          ;
Pipe1forNode41 ANforNode41       AR41        0.1        350        130 2.686599e+05         CV          ;
Pipe1forNode42 ANforNode42       AR42        0.1        350        130 8.695960e+04         CV          ;
Pipe1forNode44 ANforNode44       AR44        0.1        350        130 3.177663e+04         CV          ;
Pipe1forNode45 ANforNode45       AR45        0.1        350        130 4.709459e+04         CV          ;
Pipe1forNode46 ANforNode46       AR46        0.1        350        130 1.902077e+05         CV          ;
Pipe1forNode47 ANforNode47       AR47        0.1        350        130 5.217294e+06         CV          ;
Pipe1forNode48 ANforNode48       AR48        0.1        350        130 1.138522e+04         CV          ;
Pipe1forNode49 ANforNode49       AR49        0.1        350        130 1.561852e+05         CV          ;
Pipe1forNode50 ANforNode50       AR50        0.1        350        130 1.040741e+04         CV          ;
Pipe1forNode51 ANforNode51       AR51        0.1        350        130 1.212633e+05         CV          ;
Pipe1forNode52 ANforNode52       AR52        0.1        350        130 4.392636e+04         CV          ;
Pipe1forNode53 ANforNode53       AR53        0.1        350        130 2.793040e+05         CV          ;
Pipe1forNode55 ANforNode55       AR55        0.1        350        130 1.422309e+04         CV          ;
Pipe1forNode56 ANforNode56       AR56        0.1        350        130 1.140781e+05         CV          ;
Pipe1forNode57 ANforNode57       AR57        0.1        350        130 3.023740e+04         CV          ;
Pipe1forNode58 ANforNode58       AR58        0.1        350        130 4.978255e+05         CV          ;
Pipe1forNode59 ANforNode59       AR59        0.1        350        130 2.345178e+06         CV          ;
Pipe1forNode60 ANforNode60       AR60        0.1        350        130 6.874221e+04         CV          ;
Pipe1forNode61 ANforNode61       AR61        0.1        350        130 6.874221e+04         CV          ;
Pipe1forNode62 ANforNode62       AR62        0.1        350        130 3.281003e+04         CV          ;
Pipe1forNode82 ANforNode82       AR82        0.1        350        130 1.816602e+10         CV          ;
Pipe1forNode84 ANforNode84       AR84        0.1        350        130 6.228058e+06         CV          ;
Pipe1forNode85 ANforNode85       AR85        0.1        350        130 1.326575e+07         CV          ;
Pipe1forNode86 ANforNode86       AR86        0.1        350        130 4.351951e+04         CV          ;
Pipe1forNode87 ANforNode87       AR87        0.1        350        130 2.905842e+03         CV          ;
Pipe1forNode88 ANforNode88       AR88        0.1        350        130 3.928887e+05         CV          ;
Pipe1forNode89 ANforNode89       AR89        0.1        350        130 5.930180e+05         CV          ;


[PUMPS]
;ID              	Node1           	Node2           	Parameters

[VALVES]
;ID              	Node1           	Node2           	Diameter    	Type	Setting     	MinorLoss
 FCVforNode1          1  ANforNode1       12.0        FCV  10.009962     0.0000          ;
 FCVforNode2          2  ANforNode2       12.0        FCV  12.429962     0.0000          ;
 FCVforNode3          3  ANforNode3       12.0        FCV   8.499981     0.0000          ;
 FCVforNode4          4  ANforNode4       12.0        FCV   8.499981     0.0000          ;
 FCVforNode5          5  ANforNode5       12.0        FCV  12.119977     0.0000          ;
 FCVforNode6          6  ANforNode6       12.0        FCV   1.629997     0.0000          ;
 FCVforNode8          8  ANforNode8       12.0        FCV  33.599979     0.0000          ;
 FCVforNode9          9  ANforNode9       12.0        FCV   4.379994     0.0000          ;
FCVforNode10         10 ANforNode10       12.0        FCV  16.400008     0.0000          ;
FCVforNode11         11 ANforNode11       12.0        FCV  29.769950     0.0000          ;
FCVforNode12         12 ANforNode12       12.0        FCV   0.489995     0.0000          ;
FCVforNode13         13 ANforNode13       12.0        FCV   7.490015     0.0000          ;
FCVforNode14         14 ANforNode14       12.0        FCV   6.060026     0.0000          ;
FCVforNode17         17 ANforNode17       12.0        FCV   2.770019     0.0000          ;
FCVforNode18         18 ANforNode18       12.0        FCV   5.030002     0.0000          ;
FCVforNode19         19 ANforNode19       12.0        FCV   4.810014     0.0000          ;
FCVforNode20         20 ANforNode20       12.0        FCV  21.040045     0.0000          ;
FCVforNode21         21 ANforNode21       12.0        FCV  16.940048     0.0000          ;
FCVforNode22         22 ANforNode22       12.0        FCV  10.410021     0.0000          ;
FCVforNode23         23 ANforNode23       12.0        FCV   2.169986     0.0000          ;
FCVforNode24         24 ANforNode24       12.0        FCV   6.549976     0.0000          ;
FCVforNode25         25 ANforNode25       12.0        FCV  10.410021     0.0000          ;
FCVforNode26         26 ANforNode26       12.0        FCV   2.779992     0.0000          ;
FCVforNode27         27 ANforNode27       12.0        FCV   5.320020     0.0000          ;
FCVforNode28         28 ANforNode28       12.0        FCV   3.630019     0.0000          ;
FCVforNode29         29 ANforNode29       12.0        FCV  32.999929     0.0000          ;
FCVforNode30         30 ANforNode30       12.0        FCV   6.000030     0.0000          ;