[TITLE]
;;Project Title/Notes

[OPTIONS]
;;Option             Value
FLOW_UNITS           LPS
INFILTRATION         HORTON
FLOW_ROUTING         DYNWAVE
LINK_OFFSETS         DEPTH
MIN_SLOPE            0
ALLOW_PONDING        NO
SKIP_STEADY_STATE    NO

START_DATE           05/18/2022
START_TIME           00:00:00
REPORT_START_DATE    05/18/2022
REPORT_START_TIME    00:00:00
END_DATE             05/18/2022
END_TIME             23:59:00
SWEEP_START          01/01
SWEEP_END            12/31
DRY_DAYS             0
REPORT_STEP          00:00:10
WET_STEP             00:01:00
DRY_STEP             00:01:00
ROUTING_STEP         0:00:01
RULE_STEP            00:00:00

INERTIAL_DAMPING     PARTIAL
NORMAL_FLOW_LIMITED  BOTH
FORCE_MAIN_EQUATION  H-W
VARIABLE_STEP        0.75
LENGTHENING_STEP     0
MIN_SURFAREA         0.00000001
MAX_TRIALS           20
HEAD_TOLERANCE       0.000005
SYS_FLOW_TOL         5
LAT_FLOW_TOL         5
MINIMUM_STEP         0.1
THREADS              4

[FILES]
;;Interfacing Files


[EVAPORATION]
;;Data Source    Parameters
;;-------------- ----------------
CONSTANT         0.0
DRY_ONLY         NO

[JUNCTIONS]
;;Name           Elevation  MaxDepth   InitDepth  SurDepth   Aponded
;;-------------- ---------- ---------- ---------- ---------- ----------
         1   2.900000          0          0        100          0
         2   5.000000          0          0        100          0
         3   3.500000          0          0        100          0
         4   3.800000          0          0        100          0
         5   2.200000          0          0        100          0
         6   7.000000          0          0        100          0
         7   6.500000          0          0        100          0
         8   5.200000          0          0        100          0
         9   4.300000          0          0        100          0
        10   5.200000          0          0        100          0
        11  28.000000          0          0        100          0
        12   3.200000          0          0        100          0
        13   3.200000          0          0        100          0
        14  19.200000          0          0        100          0
        17   4.000000          0          0        100          0
        18   3.500000          0          0        100          0
        19   2.800000          0          0        100          0
        20   2.700000          0          0        100          0
        21   1.800000          0          0        100          0
        22   2.100000          0          0        100          0
        23   2.000000          0          0        100          0
        24  18.700000          0          0        100          0
        25   3.200000          0          0        100          0
        26   1.600000          0          0        100          0
        27   3.800000          0          0        100          0
        28   4.300000          0          0        100          0
        29   3.600000          0          0        100          0
        30   3.200000          0          0        100          0
        31   2.800000          0          0        100          0
        32   1.800000          0          0        100          0
        33   3.800000          0          0        100          0
        34   2.900000          0          0        100          0
        35   3.700000          0          0        100          0
        36   2.100000          0          0        100          0
        37   6.700000          0          0        100          0
        38   6.700000          0          0        100          0
        39   4.200000          0          0        100          0
        40   2.900000          0          0        100          0
        41   2.900000          0          0        100          0
        42  28.500000          0          0        100          0
        44  27.300000          0          0        100          0
        45   1.100000          0          0        100          0
        46   2.500000          0          0        100          0
        47   2.800000          0          0        100          0
        48   3.300000          0          0        100          0
        49   1.800000          0          0        100          0
        50   1.800000          0          0        100          0
        51   1.600000          0          0        100          0
        52   1.800000          0          0        100          0
        53   1.600000          0          0        100          0
        54   3.300000          0          0        100          0
        55   2.500000          0          0        100          0
        56   2.800000          0          0        100          0
        57   3.200000          0          0        100          0
        58   3.600000          0          0        100          0
        59   3.800000          0          0        100          0
        60   3.100000          0          0        100          0
        61   3.000000          0          0        100          0
        62   4.200000          0          0        100          0
        76   4.200000          0          0        100          0
        82   2.100000          0          0        100          0
        83   2.100000          0          0        100          0
        84   3.300000          0          0        100          0
        85   2.100000          0          0        100          0
        86   1.500000          0          0        100          0
        87  19.200000          0          0        100          0
        88   2.100000          0          0        100          0
        89   1.500000          0          0        100          0
     1-1-2   2.921429          0          0        100          0
     1-2-2   2.942857          0          0        100          0
     1-3-2   2.964286          0          0        100          0
     1-4-2   2.985714          0          0        100          0
     1-5-2   3.007143          0          0        100          0
     1-6-2   3.028571          0          0        100          0
     1-7-2   3.050000          0          0        100          0
     1-8-2   3.071429          0          0        100          0
     1-9-2   3.092857          0          0        100          0
    1-10-2   3.114286          0          0        100          0
    1-11-2   3.135714          0          0        100          0
    1-12-2   3.157143          0          0        100          0
    1-13-2   3.178571          0          0        100          0
    1-14-2   3.200000          0          0        100          0
    1-15-2   3.221429          0          0        100          0
    1-16-2   3.242857          0          0        100          0
    1-17-2   3.264286          0          0        100          0
    1-18-2   3.285714          0          0        100          0
    1-19-2   3.307143          0          0        100          0
    1-20-2   3.328571          0          0        100          0
    1-21-2   3.350000          0          0        100          0
    1-22-2   3.371429          0          0        100          0
    1-23-2   3.392857          0          0        100          0
    1-24-2   3.414286          0          0        100          0
    1-25-2   3.435714          0          0        100          0
    1-26-2   3.457143          0          0        100          0
    1-27-2   3.478571          0          0        100          0
    1-28-2   3.500000          0          0        100          0
    1-29-2   3.521429          0          0        100          0
    1-30-2   3.542857          0          0        100          0
    1-31-2   3.564286          0          0        100          0
    1-32-2   3.585714          0          0        100          0
    1-33-2   3.607143          0          0        100          0
    1-34-2   3.628571          0          0        100          0
    1-35-2   3.650000          0          0        100          0
    1-36-2   3.671429          0          0        100          0
    1-37-2   3.692857          0          0        100          0
    1-38-2   3.714286          0          0        100          0
    1-39-2   3.735714          0          0        100          0
    1-40-2   3.757143          0          0        100          0
    1-41-2   3.778571          0          0        100          0
    1-42-2   3.800000          0          0        100          0
    1-43-2   3.821429          0          0        100          0
    1-44-2   3.842857          0          0        100          0
    1-45-2   3.864286          0          0        100          0
    1-46-2   3.885714          0          0        100          0
    1-47-2   3.907143          0          0        100          0
    1-48-2   3.928571          0          0        100          0
    1-49-2   3.950000          0          0        100          0
    1-50-2   3.971429          0          0        100          0
    1-51-2   3.992857          0          0        100          0
    1-52-2   4.014286          0          0        100          0
    1-53-2   4.035714          0          0        100          0
    1-54-2   4.057143          0          0        100          0
    1-55-2   4.078571          0          0        100          0
    1-56-2   4.100000          0          0        100          0
    1-57-2   4.121429          0          0        100          0
    1-58-2   4.142857          0          0        100          0
    1-59-2   4.164286          0          0        100          0
    1-60-2   4.185714          0          0        100          0
    1-61-2   4.207143          0          0        100          0
    1-62-2   4.228571          0          0        100          0
    1-63-2   4.250000          0          0        100          0
    1-64-2   4.271429          0          0        100          0
    1-65-2   4.292857          0          0        100          0
    1-66-2   4.314286          0          0        100          0
    1-67-2   4.335714          0          0        100          0
    1-68-2   4.357143          0          0        100          0
    1-69-2   4.378571          0          0        100          0
    1-70-2   4.400000          0          0        100          0
    1-71-2   4.421429          0          0        100          0
    1-72-2   4.442857          0          0        100          0
    1-73-2   4.464286          0          0        100          0
    1-74-2   4.485714          0          0        100          0
    1-75-2   4.507143          0          0        100          0
    1-76-2   4.528571          0          0        100          0
    1-77-2   4.550000          0          0        100          0
    1-78-2   4.571429          0          0        100          0
    1-79-2   4.592857          0          0        100          0
    1-80-2   4.614286          0          0        100          0
    1-81-2   4.635714          0          0        100          0
    1-82-2   4.657143          0          0        100          0
    1-83-2   4.678571          0          0        100          0
    1-84-2   4.700000          0          0        100          0
    1-85-2   4.721429          0          0        100          0
    1-86-2   4.742857          0          0        100          0
    1-87-2   4.764286          0          0        100          0
    1-88-2   4.785714          0          0        100          0
    1-89-2   4.807143          0          0        100          0
    1-90-2   4.828571          0          0        100          0
    1-91-2   4.850000          0          0        100          0
    1-92-2   4.871429          0          0        100          0
    1-93-2   4.892857          0          0        100          0
    1-94-2   4.914286          0          0        100          0
    1-95-2   4.935714          0          0        100          0
    1-96-2   4.957143          0          0        100          0
    1-97-2   4.978571          0          0        100          0
     3-1-4   3.506667          0          0        100          0
     3-2-4   3.513333          0          0        100          0
     3-3-4   3.520000          0          0        100          0
     3-4-4   3.526667          0          0        100          0
     3-5-4   3.533333          0          0        100          0
     3-6-4   3.540000          0          0        100          0
     3-7-4   3.546667          0          0        100          0
     3-8-4   3.553333          0          0        100          0
     3-9-4   3.560000          0          0        100          0
    3-10-4   3.566667          0          0        100          0
    3-11-4   3.573333          0          0        100          0
    3-12-4   3.580000          0          0        100          0
    3-13-4   3.586667          0          0        100          0
    3-14-4   3.593333          0          0        100          0
    3-15-4   3.600000          0          0        100          0
    3-16-4   3.606667          0          0        100          0
    3-17-4   3.613333          0          0        100          0
    3-18-4   3.620000          0          0        100          0
    3-19-4   3.626667          0          0        100          0
    3-20-4   3.633333          0          0        100          0
    3-21-4   3.640000          0          0        100          0
    3-22-4   3.646667          0          0        100          0
    3-23-4   3.653333          0          0        100          0
    3-24-4   3.660000          0          0        100          0
    3-25-4   3.666667          0          0        100          0
    3-26-4   3.673333          0          0        100          0
    3-27-4   3.680000          0          0        100          0
    3-28-4   3.686667          0          0        100          0
    3-29-4   3.693333          0          0        100          0
    3-30-4   3.700000          0          0        100          0
    3-31-4   3.706667          0          0        100          0
    3-32-4   3.713333          0          0        100          0
    3-33-4   3.720000          0          0        100          0
    3-34-4   3.726667          0          0        100          0
    3-35-4   3.733333          0          0        100          0
    3-36-4   3.740000          0          0        100          0
    3-37-4   3.746667          0          0        100          0
    3-38-4   3.753333          0          0        100          0
    3-39-4   3.760000          0          0        100          0
    3-40-4   3.766667          0          0        100          0
    3-41-4   3.773333          0          0        100          0
    3-42-4   3.780000          0          0        100          0
    3-43-4   3.786667          0          0        100          0
    3-44-4   3.793333          0          0        100          0
     3-1-5   3.490845          0          0        100          0
     3-2-5   3.481690          0          0        100          0
     3-3-5   3.472535          0          0        100          0
     3-4-5   3.463380          0          0        100          0
     3-5-5   3.454225          0          0        100          0
     3-6-5   3.445070          0          0        100          0
     3-7-5   3.435915          0          0        100          0
     3-8-5   3.426761          0          0        100          0
     3-9-5   3.417606          0          0        100          0
    3-10-5   3.408451          0          0        100          0
    3-11-5   3.399296          0          0        100          0
    3-12-5   3.390141          0          0        100          0
    3-13-5   3.380986          0          0        100          0
    3-14-5   3.371831          0          0        100          0
    3-15-5   3.362676          0          0        100          0
    3-16-5   3.353521          0          0        100          0
    3-17-5   3.344366          0          0        100          0
    3-18-5   3.335211          0          0        100          0
    3-19-5   3.326056          0          0        100          0
    3-20-5   3.316901          0          0        100          0
    3-21-5   3.307746          0          0        100          0
    3-22-5   3.298592          0          0        100          0
    3-23-5   3.289437          0          0        100          0
    3-24-5   3.280282          0          0        100          0
    3-25-5   3.271127          0          0        100          0
    3-26-5   3.261972          0          0        100          0
    3-27-5   3.252817          0          0        100          0
    3-28-5   3.243662          0          0        100          0
    3-29-5   3.234507          0          0        100          0
    3-30-5   3.225352          0          0        100          0
    3-31-5   3.216197          0          0        100          0
    3-32-5   3.207042          0          0        100          0
    3-33-5   3.197887          0          0        100          0
    3-34-5   3.188732          0          0        100          0
    3-35-5   3.179577          0          0        100          0
    3-36-5   3.170423          0          0        100          0
    3-37-5   3.161268          0          0        100          0
    3-38-5   3.152113          0          0        100          0
    3-39-5   3.142958          0          0        100          0
    3-40-5   3.133803          0          0        100          0
    3-41-5   3.124648          0          0        100          0
    3-42-5   3.115493          0          0        100          0
    3-43-5   3.106338          0          0        100          0
    3-44-5   3.097183          0          0        100          0
    3-45-5   3.088028          0          0        100          0
    3-46-5   3.078873          0          0        100          0
    3-47-5   3.069718          0          0        100          0
    3-48-5   3.060563          0          0        100          0
    3-49-5   3.051408          0          0        100          0
    3-50-5   3.042254          0          0        100          0
    3-51-5   3.033099          0          0        100          0
    3-52-5   3.023944          0          0        100          0
    3-53-5   3.014789          0          0        100          0
    3-54-5   3.005634          0          0        100          0
    3-55-5   2.996479          0          0        100          0
    3-56-5   2.987324          0          0        100          0
    3-57-5   2.978169          0          0        100          0
    3-58-5   2.969014          0          0        100          0
    3-59-5   2.959859          0          0        100          0
    3-60-5   2.950704          0          0        100          0
    3-61-5   2.941549          0          0        100          0
    3-62-5   2.932394          0          0        100          0
    3-63-5   2.923239          0          0        100          0
    3-64-5   2.914085          0          0        100          0
    3-65-5   2.904930          0          0        100          0
    3-66-5   2.895775          0          0        100          0
    3-67-5   2.886620          0          0        100          0
    3-68-5   2.877465          0          0        100          0
    3-69-5   2.868310          0          0        100          0
    3-70-5   2.859155          0          0        100          0
    3-71-5   2.850000          0          0        100          0
    3-72-5   2.840845          0          0        100          0
    3-73-5   2.831690          0          0        100          0
    3-74-5   2.822535          0          0        100          0
    3-75-5   2.813380          0          0        100          0
    3-76-5   2.804225          0          0        100          0
    3-77-5   2.795070          0          0        100          0
    3-78-5   2.785915          0          0        100          0
    3-79-5   2.776761          0          0        100          0
    3-80-5   2.767606          0          0        100          0
    3-81-5   2.758451          0          0        100          0
    3-82-5   2.749296          0          0        100          0
    3-83-5   2.740141          0          0        100          0
    3-84-5   2.730986          0          0        100          0
    3-85-5   2.721831          0          0        100          0
    3-86-5   2.712676          0          0        100          0
    3-87-5   2.703521          0          0        100          0
    3-88-5   2.694366          0          0        100          0
    3-89-5   2.685211          0          0        100          0
    3-90-5   2.676056          0          0        100          0
    3-91-5   2.666901          0          0        100          0
    3-92-5   2.657746          0          0        100          0
    3-93-5   2.648592          0          0        100          0
    3-94-5   2.639437          0          0        100          0
    3-95-5   2.630282          0          0        100          0
    3-96-5   2.621127          0          0        100          0
    3-97-5   2.611972          0          0        100          0
    3-98-5   2.602817          0          0        100          0
    3-99-5   2.593662          0          0        100          0
   3-100-5   2.584507          0          0        100          0
   3-101-5   2.575352          0          0        100          0
   3-102-5   2.566197          0          0        100          0
   3-103-5   2.557042          0          0        100          0
   3-104-5   2.547887          0          0        100          0
   3-105-5   2.538732          0          0        100          0
   3-106-5   2.529577          0          0        100          0
   3-107-5   2.520423          0          0        100          0
   3-108-5   2.511268          0          0        100          0
   3-109-5   2.502113          0          0        100          0
   3-110-5   2.492958          0          0        100          0
   3-111-5   2.483803          0          0        100          0
   3-112-5   2.474648          0          0        100          0
   3-113-5   2.465493          0          0        100          0
   3-114-5   2.456338          0          0        100          0
   3-115-5   2.447183          0          0        100          0
   3-116-5   2.438028          0          0        100          0
   3-117-5   2.428873          0          0        100          0
   3-118-5   2.419718          0          0        100          0
   3-119-5   2.410563          0          0        100          0
   3-120-5   2.401408          0          0        100          0
   3-121-5   2.392254          0          0        100          0
   3-122-5   2.383099          0          0        100          0
   3-123-5   2.373944          0          0        100          0
   3-124-5   2.364789          0          0        100          0
   3-125-5   2.355634          0          0        100          0
   3-126-5   2.346479          0          0        100          0
   3-127-5   2.337324          0          0        100          0
   3-128-5   2.328169          0          0        100          0
   3-129-5   2.319014          0          0        100          0
   3-130-5   2.309859          0          0        100          0
   3-131-5   2.300704          0          0        100          0
   3-132-5   2.291549          0          0        100          0
   3-133-5   2.282394          0          0        100          0
   3-134-5   2.273239          0          0        100          0
   3-135-5   2.264085          0          0        100          0
   3-136-5   2.254930          0          0        100          0
   3-137-5   2.245775          0          0        100          0
   3-138-5   2.236620          0          0        100          0
   3-139-5   2.227465          0          0        100          0
   3-140-5   2.218310          0          0        100          0
   3-141-5   2.209155          0          0        100          0
     3-1-1   3.477778          0          0        100          0
     3-2-1   3.455556          0          0        100          0
     3-3-1   3.433333          0          0        100          0
     3-4-1   3.411111          0          0        100          0
     3-5-1   3.388889          0          0        100          0
     3-6-1   3.366667          0          0        100          0
     3-7-1   3.344444          0          0        100          0
     3-8-1   3.322222          0          0        100          0
     3-9-1   3.300000          0          0        100          0
    3-10-1   3.277778          0          0        100          0
    3-11-1   3.255556          0          0        100          0
    3-12-1   3.233333          0          0        100          0
    3-13-1   3.211111          0          0        100          0
    3-14-1   3.188889          0          0        100          0
    3-15-1   3.166667          0          0        100          0
    3-16-1   3.144444          0          0        100          0
    3-17-1   3.122222          0          0        100          0
    3-18-1   3.100000          0          0        100          0
    3-19-1   3.077778          0          0        100          0
    3-20-1   3.055556          0          0        100          0
    3-21-1   3.033333          0          0        100          0
    3-22-1   3.011111          0          0        100          0
    3-23-1   2.988889          0          0        100          0
    3-24-1   2.966667          0          0        100          0
    3-25-1   2.944444          0          0        100          0
    3-26-1   2.922222          0          0        100          0
     6-1-7   6.958333          0          0        100          0
     6-2-7   6.916667          0          0        100          0
     6-3-7   6.875000          0          0        100          0
     6-4-7   6.833333          0          0        100          0
     6-5-7   6.791667          0          0        100          0
     6-6-7   6.750000          0          0        100          0
     6-7-7   6.708333          0          0        100          0
     6-8-7   6.666667          0          0        100          0
     6-9-7   6.625000          0          0        100          0
    6-10-7   6.583333          0          0        100          0
    6-11-7   6.541667          0          0        100          0
     6-1-8   6.914286          0          0        100          0
     6-2-8   6.828571          0          0        100          0
     6-3-8   6.742857          0          0        100          0
     6-4-8   6.657143          0          0        100          0
     6-5-8   6.571429          0          0        100          0
     6-6-8   6.485714          0          0        100          0
     6-7-8   6.400000          0          0        100          0
     6-8-8   6.314286          0          0        100          0
     6-9-8   6.228571          0          0        100          0
    6-10-8   6.142857          0          0        100          0
    6-11-8   6.057143          0          0        100          0
    6-12-8   5.971429          0          0        100          0
    6-13-8   5.885714          0          0        100          0
    6-14-8   5.800000          0          0        100          0
    6-15-8   5.714286          0          0        100          0
    6-16-8   5.628571          0          0        100          0
    6-17-8   5.542857          0          0        100          0
    6-18-8   5.457143          0          0        100          0
    6-19-8   5.371429          0          0        100          0
    6-20-8   5.285714          0          0        100          0
     9-1-6   4.311688          0          0        100          0
     9-2-6   4.323377          0          0        100          0
     9-3-6   4.335065          0          0        100          0
     9-4-6   4.346753          0          0        100          0
     9-5-6   4.358442          0          0        100          0
     9-6-6   4.370130          0          0        100          0
     9-7-6   4.381818          0          0        100          0
     9-8-6   4.393506          0          0        100          0
     9-9-6   4.405195          0          0        100          0
    9-10-6   4.416883          0          0        100          0
    9-11-6   4.428571          0          0        100          0
    9-12-6   4.440260          0          0        100          0
    9-13-6   4.451948          0          0        100          0
    9-14-6   4.463636          0          0        100          0
    9-15-6   4.475325          0          0        100          0
    9-16-6   4.487013          0          0        100          0
    9-17-6   4.498701          0          0        100          0
    9-18-6   4.510390          0          0        100          0
    9-19-6   4.522078          0          0        100          0
    9-20-6   4.533766          0          0        100          0
    9-21-6   4.545455          0          0        100          0
    9-22-6   4.557143          0          0        100          0
    9-23-6   4.568831          0          0        100          0
    9-24-6   4.580519          0          0        100          0
    9-25-6   4.592208          0          0        100          0
    9-26-6   4.603896          0          0        100          0
    9-27-6   4.615584          0          0        100          0
    9-28-6   4.627273          0          0        100          0