[TITLE]
Case Study 1 Network in Campisano et al. (2018) Using EPA-SWMM to simulate
intermittent water distribution systems.
Converted to an EPANET IWS using the EPANET-PDA method assuming the head of the
reservoir (not provided in the original paper)
Details of this specific conversion process are included in:
PLACEHOLDER

[JUNCTIONS]
;ID              	Elev        	Demand      	Pattern
 1               	712         	0.72        	                	;
 2               	707.51      	2.16        	                	;
 3               	702.18      	4.68        	                	;
 4               	687         	0           	                	;
 5               	686.26      	3.24        	                	;
 6               	687         	0           	                	;
 7               	666         	0           	                	;
 8               	650         	0           	                	;
 9               	660.7       	0.36        	                	;
 10              	671         	2.88        	                	;
 11              	671.43      	0.36        	                	;
 12              	670.35      	0           	                	;
 13              	670.35      	1.32        	                	;
 14              	674.1       	0           	                	;
 15              	710.39      	12.96       	                	;
 16              	711.04      	0           	                	;
 17              	723.25      	0.36        	                	;
 18              	711.5       	0.36        	                	;
 19              	731.53      	0           	                	;
 20              	728.19      	0.36        	                	;
 21              	757.02      	1.08        	                	;
 22              	741.38      	0.36        	                	;
 23              	777.19      	0           	                	;
 24              	772         	0           	                	;
 25              	772         	0.12        	                	;
 26              	762         	0.36        	                	;
 27              	737.13      	4.32        	                	;
 28              	727.21      	1.08        	                	;
 29              	727         	0           	                	;
 30              	719         	0.72        	                	;
 31              	711.08      	0.36        	                	;
 32              	705         	0.72        	                	;
 33              	700.36      	1.8         	                	;
 34              	757         	2.16        	                	;
 35              	749         	2.16        	                	;
 36              	746.24      	3.6         	                	;
 37              	746         	0.36        	                	;
 38              	751.08      	1.8         	                	;
 39              	758.02      	0.36        	                	;
 40              	760         	0.36        	                	;
 41              	738.75      	6.12        	                	;
 42              	735.83      	2.16        	                	;
 43              	719.99      	1.08        	                	;
 44              	717.36      	11.52       	                	;
 45              	717.36      	2.88        	                	;
 46              	715         	0           	                	;
 47              	713.02      	0           	                	;
 48              	712         	0           	                	;
 49              	719.8       	2.52        	                	;
 50              	720.2       	1.44        	                	;
 51              	722.67      	0           	                	;
 52              	716.52      	0.36        	                	;
 53              	725         	0           	                	;
 54              	725         	0.36        	                	;
 55              	745.72      	0           	                	;
 56              	764.6       	0           	                	;

[RESERVOIRS]
;ID              	Head        	Pattern
 57              	810.0000    	                	;

[TANKS]
;ID              	Elevation   	InitLevel   	MinLevel    	MaxLevel    	Diameter    	MinVol      	VolCurve        	Overflow

[PIPES]
;ID              	Node1           	Node2           	Length      	Diameter    	Roughness   	MinorLoss   	Status
 1               	1               	2               	62.4        	125         	130         	0           	Open  	;
 2               	2               	3               	31.4        	100         	130         	0           	Open  	;
 3               	3               	4               	66.8        	100         	130         	0           	Open  	;
 4               	4               	5               	106.2       	100         	130         	0           	Open  	;
 5               	5               	6               	152.7       	100         	130         	0           	Open  	;
 6               	6               	7               	186.7       	100         	130         	0           	Open  	;
 7               	7               	8               	209.7       	100         	130         	0           	Open  	;
 8               	8               	9               	1779        	100         	130         	0           	Open  	;
 9               	9               	10              	133.7       	100         	130         	0           	Open  	;
 10              	10              	11              	177         	50          	130         	0           	Open  	;
 11              	11              	12              	172.39      	25          	130         	0           	Open  	;
 12              	12              	13              	100         	25          	130         	0           	Open  	;
 13              	12              	14              	88.03       	25          	130         	0           	Open  	;
 14              	10              	15              	380.3       	100         	130         	0           	Open  	;
 15              	15              	16              	51.1        	60          	130         	0           	Open  	;
 16              	16              	17              	91.78       	60          	130         	0           	Open  	;
 17              	16              	18              	50          	60          	130         	0           	Open  	;
 18              	15              	19              	167.8       	100         	130         	0           	Open  	;
 19              	19              	20              	134.2       	100         	130         	0           	Open  	;
 20              	19              	21              	177.1       	100         	130         	0           	Open  	;
 21              	21              	22              	281.2       	60          	130         	0           	Open  	;
 22              	21              	23              	183.1       	200         	130         	0           	Open  	;
 23              	23              	24              	383.9       	150         	130         	0           	Open  	;
 24              	24              	25              	69.9        	100         	130         	0           	Open  	;
 25              	25              	26              	161.7       	100         	130         	0           	Open  	;
 26              	26              	27              	132.4       	100         	130         	0           	Open  	;
 27              	27              	28              	167.3       	100         	130         	0           	Open  	;
 28              	28              	29              	34.5        	100         	130         	0           	Open  	;
 29              	29              	30              	69.2        	100         	130         	0           	Open  	;
 30              	30              	31              	121.3       	100         	130         	0           	Open  	;
 31              	31              	32              	47.6        	100         	130         	0           	Open  	;
 32              	32              	33              	93.9        	100         	130         	0           	Open  	;
 33              	33              	9               	345.1       	160         	130         	0           	Open  	;
 34              	26              	34              	73          	100         	130         	0           	Open  	;
 35              	34              	35              	98.3        	100         	130         	0           	Open  	;
 36              	35              	36              	94.8        	150         	130         	0           	Open  	;
 37              	36              	37              	80.1        	32          	130         	0           	Open  	;
 38              	37              	38              	58.5        	100         	130         	0           	Open  	;
 39              	38              	39              	41.4        	100         	130         	0           	Open  	;
 40              	39              	40              	117.8       	100         	130         	0           	Open  	;
 41              	38              	34              	184.8       	32          	130         	0           	Open  	;
 42              	36              	41              	67.1        	150         	130         	0           	Open  	;
 43              	41              	42              	110.3       	125         	130         	0           	Open  	;
 44              	42              	43              	242.3       	125         	130         	0           	Open  	;
 45              	43              	44              	51.5        	125         	130         	0           	Open  	;
 46              	44              	45              	13.7        	125         	130         	0           	Open  	;
 47              	45              	46              	72.6        	125         	130         	0           	Open  	;
 48              	46              	47              	43.2        	125         	130         	0           	Open  	;
 49              	47              	48              	48.6        	125         	130         	0           	Open  	;
 50              	48              	2               	102.5       	125         	130         	0           	Open  	;
 51              	44              	49              	60          	80          	130         	0           	Open  	;
 52              	49              	50              	75.6        	80          	130         	0           	Open  	;
 53              	50              	51              	62.3        	100         	130         	0           	Open  	;
 54              	51              	52              	95.1        	50          	130         	0           	Open  	;
 55              	51              	53              	184.6       	100         	130         	0           	Open  	;
 56              	53              	54              	20.6        	100         	130         	0           	Open  	;
 57              	53              	55              	179.1       	100         	130         	0           	Open  	;
 58              	55              	56              	364.4       	100         	130         	0           	Open  	;
 59              	57              	23              	50          	1000        	130         	0           	CV    	;

[PUMPS]
;ID              	Node1           	Node2           	Parameters

[VALVES]
;ID              	Node1           	Node2           	Diameter    	Type	Setting     	MinorLoss

[TAGS]

[DEMANDS]
;Junction        	Demand      	Pattern         	Category

[STATUS]
;ID              	Status/Setting

[PATTERNS]
;ID              	Multipliers

[CURVES]
;ID              	X-Value     	Y-Value

[CONTROLS]








[RULES]









[ENERGY]
 Global Efficiency  	75.0000
 Global Price       	0
 Demand Charge      	0.0000

[EMITTERS]
;Junction        	Coefficient

[QUALITY]
;Node            	InitQual

[SOURCES]
;Node            	Type        	Quality     	Pattern

[REACTIONS]
;Type     	Pipe/Tank       	Coefficient


[REACTIONS]
 Order Bulk            	1.00
 Order Tank            	1.00
 Order Wall            	1
 Global Bulk           	0.000000
 Global Wall           	0.000000
 Limiting Potential    	0
 Roughness Correlation 	0

[MIXING]
;Tank            	Model

[TIMES]
 Duration           	4:00
 Hydraulic Timestep 	1:00
 Quality Timestep   	0:01
 Pattern Timestep   	1:00
 Pattern Start      	0:00
 Report Timestep    	0:01
 Report Start       	0:00
 Start ClockTime    	0:00:00
 Statistic          	NONE

[REPORT]
 Status             	No
 Summary            	No
 Page               	0

[OPTIONS]
 Units              	LPS
 Headloss           	H-W
 Specific Gravity   	1.000000
 Viscosity          	1.000000
 Trials             	40
 Accuracy           	0.00100000
 CHECKFREQ          	2
 MAXCHECK           	10
 DAMPLIMIT          	0.00000000
 Unbalanced         	Continue 10
 Pattern            	1
 Demand Multiplier  	1.0000
 Demand Model       	PDA
 Minimum Pressure   	0
 Required Pressure  	10
 Pressure Exponent  	0.5
 Emitter Exponent   	0.5000
 Quality            	NONE mg/L
 Diffusivity        	1.000000
 Tolerance          	0.01000000

[COORDINATES]
;Node            	X-Coord           	Y-Coord
1               	462.099           	438.352
2               	462.018           	436.411
3               	461.776           	433.904
4               	457.225           	432.809
5               	462.141           	427.336
6               	456.706           	422.924
7               	462.345           	418.266
8               	462.222           	412.443
9               	467.861           	414.650
10              	473.622           	420.166
11              	480.915           	420.472
12              	486.799           	419.982
13              	490.707           	417.138
14              	491.642           	424.536
15              	479.571           	436.685
16              	475.677           	438.398
17              	477.702           	441.280
18              	474.042           	436.062
19              	491.953           	445.952
20              	499.585           	446.108
21              	492.654           	454.674
22              	500.520           	454.830
23              	496.937           	466.745
24              	478.474           	465.754
25              	476.514           	468.498
26              	469.883           	467.818
27              	469.768           	462.028
28              	471.041           	456.355
29              	471.504           	452.419
30              	470.810           	447.672
31              	469.189           	440.956
32              	468.494           	435.862
33              	467.683           	430.073
34              	465.415           	467.951
35              	461.614           	467.951
36              	456.762           	467.871
37              	458.056           	474.098
38              	459.916           	477.009
39              	461.371           	479.355
40              	463.555           	482.347
41              	446.976           	468.113
42              	450.858           	463.908
43              	448.270           	454.041
44              	447.542           	450.564
45              	446.870           	447.114
46              	446.030           	444.221
47              	441.924           	440.955
48              	451.536           	437.969
49              	441.364           	451.500
50              	435.952           	452.806
51              	430.540           	454.486
52              	429.233           	450.567
53              	427.554           	455.512
54              	424.288           	455.979
55              	429.420           	462.791
56              	432.313           	467.923
57              	500.909           	469.393

[VERTICES]
;Link            	X-Coord           	Y-Coord

[LABELS]
;X-Coord             Y-Coord             Label & Anchor Node

[BACKDROP]
  DIMENSIONS  	420.457           	408.948           	504.740           	485.842
 UNITS          	None
 FILE
 OFFSET         	0.00            	0.00

[END]
