[TITLE]
Case Study 1 Network in Campisano et al. (2019) Using EPA-SWMM to simulate
intermittent water distribution systems.
Converted to an EPANET IWS using the EPANET-PDA method assuming the head of the
reservoir (not provided in the original paper)
Details of this specific conversion process are included in:
PLACEHOLDER

[JUNCTIONS]
;ID              	Elev        	Demand      	Pattern
         1     712.00          0                     ;
         2     707.51          0                     ;
         3     702.18          0                     ;
         4     687.00          0                     ;
         5     686.26          0                     ;
         6     687.00          0                     ;
         7     666.00          0                     ;
         8     650.00          0                     ;
         9     660.70          0                     ;
        10     671.00          0                     ;
        11     671.43          0                     ;
        12     670.35          0                     ;
        13     670.35          0                     ;
        14     674.10          0                     ;
        15     710.39          0                     ;
        16     711.04          0                     ;
        17     723.25          0                     ;
        18     711.50          0                     ;
        19     731.53          0                     ;
        20     728.19          0                     ;
        21     757.02          0                     ;
        22     741.38          0                     ;
        23     777.19          0                     ;
        24     772.00          0                     ;
        25     772.00          0                     ;
        26     762.00          0                     ;
        27     737.13          0                     ;
        28     727.21          0                     ;
        29     727.00          0                     ;
        30     719.00          0                     ;
        31     711.08          0                     ;
        32     705.00          0                     ;
        33     700.36          0                     ;
        34     757.00          0                     ;
        35     749.00          0                     ;
        36     746.24          0                     ;
        37     746.00          0                     ;
        38     751.08          0                     ;
        39     758.02          0                     ;
        40     760.00          0                     ;
        41     738.75          0                     ;
        42     735.83          0                     ;
        43     719.99          0                     ;
        44     717.36          0                     ;
        45     717.36          0                     ;
        46     715.00          0                     ;
        47     713.02          0                     ;
        48     712.00          0                     ;
        49     719.80          0                     ;
        50     720.20          0                     ;
        51     722.67          0                     ;
        52     716.52          0                     ;
        53     725.00          0                     ;
        54     725.00          0                     ;
        55     745.72          0                     ;
        56     764.60          0                     ;
 AN1forNode1     712.00          0                     ;
 AN1forNode2     707.51          0                     ;
 AN1forNode3     702.18          0                     ;
 AN1forNode5     686.26          0                     ;
 AN1forNode9     660.70          0                     ;
AN1forNode10     671.00          0                     ;
AN1forNode11     671.43          0                     ;
AN1forNode13     670.35          0                     ;
AN1forNode15     710.39          0                     ;
AN1forNode17     723.25          0                     ;
AN1forNode18     711.50          0                     ;
AN1forNode20     728.19          0                     ;
AN1forNode21     757.02          0                     ;
AN1forNode22     741.38          0                     ;
AN1forNode25     772.00          0                     ;
AN1forNode26     762.00          0                     ;
AN1forNode27     737.13          0                     ;
AN1forNode28     727.21          0                     ;
AN1forNode30     719.00          0                     ;
AN1forNode31     711.08          0                     ;
AN1forNode32     705.00          0                     ;
AN1forNode33     700.36          0                     ;
AN1forNode34     757.00          0                     ;
AN1forNode35     749.00          0                     ;
AN1forNode36     746.24          0                     ;
AN1forNode37     746.00          0                     ;
AN1forNode38     751.08          0                     ;
AN1forNode39     758.02          0                     ;
AN1forNode40     760.00          0                     ;
AN1forNode41     738.75          0                     ;
AN1forNode42     735.83          0                     ;
AN1forNode43     719.99          0                     ;
AN1forNode44     717.36          0                     ;
AN1forNode45     717.36          0                     ;
AN1forNode49     719.80          0                     ;
AN1forNode50     720.20          0                     ;
AN1forNode52     716.52          0                     ;
AN1forNode54     725.00          0                     ;
 AN2forNode1     712.00          0                     ;
 AN2forNode2     707.51          0                     ;
 AN2forNode3     702.18          0                     ;
 AN2forNode5     686.26          0                     ;
 AN2forNode9     660.70          0                     ;
AN2forNode10     671.00          0                     ;
AN2forNode11     671.43          0                     ;
AN2forNode13     670.35          0                     ;
AN2forNode15     710.39          0                     ;
AN2forNode17     723.25          0                     ;
AN2forNode18     711.50          0                     ;
AN2forNode20     728.19          0                     ;
AN2forNode21     757.02          0                     ;
AN2forNode22     741.38          0                     ;
AN2forNode25     772.00          0                     ;
AN2forNode26     762.00          0                     ;
AN2forNode27     737.13          0                     ;
AN2forNode28     727.21          0                     ;
AN2forNode30     719.00          0                     ;
AN2forNode31     711.08          0                     ;
AN2forNode32     705.00          0                     ;
AN2forNode33     700.36          0                     ;
AN2forNode34     757.00          0                     ;
AN2forNode35     749.00          0                     ;
AN2forNode36     746.24          0                     ;
AN2forNode37     746.00          0                     ;
AN2forNode38     751.08          0                     ;
AN2forNode39     758.02          0                     ;
AN2forNode40     760.00          0                     ;
AN2forNode41     738.75          0                     ;
AN2forNode42     735.83          0                     ;
AN2forNode43     719.99          0                     ;
AN2forNode44     717.36          0                     ;
AN2forNode45     717.36          0                     ;
AN2forNode49     719.80          0                     ;
AN2forNode50     720.20          0                     ;
AN2forNode52     716.52          0                     ;
AN2forNode54     725.00          0                     ;


[RESERVOIRS]
;ID              	Head        	Pattern
 57              	800.0000    	                	;

[TANKS]
;ID              	Elevation   	InitLevel   	MinLevel    	MaxLevel    	Diameter    	MinVol      	VolCurve        	Overflow
 ATforNode1     711.00        0.0        0.0        1.0     3.6333        0.0                     ;
 ATforNode2     706.51        0.0        0.0        1.0     6.2931        0.0                     ;
 ATforNode3     701.18        0.0        0.0        1.0     9.2632        0.0                     ;
 ATforNode5     685.26        0.0        0.0        1.0     7.7074        0.0                     ;
 ATforNode9     659.70        0.0        0.0        1.0     2.5691        0.0                     ;
ATforNode10     670.00        0.0        0.0        1.0     7.2666        0.0                     ;
ATforNode11     670.43        0.0        0.0        1.0     2.5691        0.0                     ;
ATforNode13     669.35        0.0        0.0        1.0     4.9195        0.0                     ;
ATforNode15     709.39        0.0        0.0        1.0    15.4148        0.0                     ;
ATforNode17     722.25        0.0        0.0        1.0     2.5691        0.0                     ;
ATforNode18     710.50        0.0        0.0        1.0     2.5691        0.0                     ;
ATforNode20     727.19        0.0        0.0        1.0     2.5691        0.0                     ;
ATforNode21     756.02        0.0        0.0        1.0     4.4499        0.0                     ;
ATforNode22     740.38        0.0        0.0        1.0     2.5691        0.0                     ;
ATforNode25     771.00        0.0        0.0        1.0     1.4833        0.0                     ;
ATforNode26     761.00        0.0        0.0        1.0     2.5691        0.0                     ;
ATforNode27     736.13        0.0        0.0        1.0     8.8998        0.0                     ;
ATforNode28     726.21        0.0        0.0        1.0     4.4499        0.0                     ;
ATforNode30     718.00        0.0        0.0        1.0     3.6333        0.0                     ;
ATforNode31     710.08        0.0        0.0        1.0     2.5691        0.0                     ;
ATforNode32     704.00        0.0        0.0        1.0     3.6333        0.0                     ;
ATforNode33     699.36        0.0        0.0        1.0     5.7448        0.0                     ;
ATforNode34     756.00        0.0        0.0        1.0     6.2931        0.0                     ;
ATforNode35     748.00        0.0        0.0        1.0     6.2931        0.0                     ;
ATforNode36     745.24        0.0        0.0        1.0     8.1243        0.0                     ;
ATforNode37     745.00        0.0        0.0        1.0     2.5691        0.0                     ;
ATforNode38     750.08        0.0        0.0        1.0     5.7448        0.0                     ;
ATforNode39     757.02        0.0        0.0        1.0     2.5691        0.0                     ;
ATforNode40     759.00        0.0        0.0        1.0     2.5691        0.0                     ;
ATforNode41     737.75        0.0        0.0        1.0    10.5928        0.0                     ;
ATforNode42     734.83        0.0        0.0        1.0     6.2931        0.0                     ;
ATforNode43     718.99        0.0        0.0        1.0     4.4499        0.0                     ;
ATforNode44     716.36        0.0        0.0        1.0    14.5332        0.0                     ;
ATforNode45     716.36        0.0        0.0        1.0     7.2666        0.0                     ;
ATforNode49     718.80        0.0        0.0        1.0     6.7973        0.0                     ;
ATforNode50     719.20        0.0        0.0        1.0     5.1383        0.0                     ;
ATforNode52     715.52        0.0        0.0        1.0     2.5691        0.0                     ;
ATforNode54     724.00        0.0        0.0        1.0     2.5691        0.0                     ;


[PIPES]
;ID              	Node1           	Node2           	Length      	Diameter    	Roughness   	MinorLoss   	Status
 1               	1               	2               	62.4        	125         	130         	0           	Open  	;
 2               	2               	3               	31.4        	100         	130         	0           	Open  	;
 3               	3               	4               	66.8        	100         	130         	0           	Open  	;
 4               	4               	5               	106.2       	100         	130         	0           	Open  	;
 5               	5               	6               	152.7       	100         	130         	0           	Open  	;
 6               	6               	7               	186.7       	100         	130         	0           	Open  	;
 7               	7               	8               	209.7       	100         	130         	0           	Open  	;
 8               	8               	9               	1779        	100         	130         	0           	Open  	;
 9               	9               	10              	133.7       	100         	130         	0           	Open  	;
 10              	10              	11              	177         	50          	130         	0           	Open  	;
 11              	11              	12              	172.39      	25          	130         	0           	Open  	;
 12              	12              	13              	100         	25          	130         	0           	Open  	;
 13              	12              	14              	88.03       	25          	130         	0           	Open  	;
 14              	10              	15              	380.3       	100         	130         	0           	Open  	;
 15              	15              	16              	51.1        	60          	130         	0           	Open  	;
 16              	16              	17              	91.78       	60          	130         	0           	Open  	;
 17              	16              	18              	50          	60          	130         	0           	Open  	;
 18              	15              	19              	167.8       	100         	130         	0           	Open  	;
 19              	19              	20              	134.2       	100         	130         	0           	Open  	;
 20              	19              	21              	177.1       	100         	130         	0           	Open  	;
 21              	21              	22              	281.2       	60          	130         	0           	Open  	;
 22              	21              	23              	183.1       	200         	130         	0           	Open  	;
 23              	23              	24              	383.9       	150         	130         	0           	Open  	;
 24              	24              	25              	69.9        	100         	130         	0           	Open  	;
 25              	25              	26              	161.7       	100         	130         	0           	Open  	;
 26              	26              	27              	132.4       	100         	130         	0           	Open  	;
 27              	27              	28              	167.3       	100         	130         	0           	Open  	;
 28              	28              	29              	34.5        	100         	130         	0           	Open  	;
 29              	29              	30              	69.2        	100         	130         	0           	Open  	;
 30              	30              	31              	121.3       	100         	130         	0           	Open  	;
 31              	31              	32              	47.6        	100         	130         	0           	Open  	;
 32              	32              	33              	93.9        	100         	130         	0           	Open  	;
 33              	33              	9               	345.1       	160         	130         	0           	Open  	;
 34              	26              	34              	73          	100         	130         	0           	Open  	;
 35              	34              	35              	98.3        	100         	130         	0           	Open  	;
 36              	35              	36              	94.8        	150         	130         	0           	Open  	;
 37              	36              	37              	80.1        	32          	130         	0           	Open  	;
 38              	37              	38              	58.5        	100         	130         	0           	Open  	;
 39              	38              	39              	41.4        	100         	130         	0           	Open  	;
 40              	39              	40              	117.8       	100         	130         	0           	Open  	;
 41              	38              	34              	184.8       	32          	130         	0           	Open  	;
 42              	36              	41              	67.1        	150         	130         	0           	Open  	;
 43              	41              	42              	110.3       	125         	130         	0           	Open  	;
 44              	42              	43              	242.3       	125         	130         	0           	Open  	;
 45              	43              	44              	51.5        	125         	130         	0           	Open  	;
 46              	44              	45              	13.7        	125         	130         	0           	Open  	;
 47              	45              	46              	72.6        	125         	130         	0           	Open  	;
 48              	46              	47              	43.2        	125         	130         	0           	Open  	;
 49              	47              	48              	48.6        	125         	130         	0           	Open  	;
 50              	48              	2               	102.5       	125         	130         	0           	Open  	;
 51              	44              	49              	60          	80          	130         	0           	Open  	;
 52              	49              	50              	75.6        	80          	130         	0           	Open  	;
 53              	50              	51              	62.3        	100         	130         	0           	Open  	;
 54              	51              	52              	95.1        	50          	130         	0           	Open  	;
 55              	51              	53              	184.6       	100         	130         	0           	Open  	;
 56              	53              	54              	20.6        	100         	130         	0           	Open  	;
 57              	53              	55              	179.1       	100         	130         	0           	Open  	;
 58              	55              	56              	364.4       	100         	130         	0           	Open  	;
 59              	57              	23              	50          	1000        	130         	0           	CV    	;
 Pipe1forNode1            1  AN1forNode1        0.1        350        130 3.503370e+06         CV          ;
 Pipe1forNode2            2  AN1forNode2        0.1        350        130 3.892633e+05         CV          ;
 Pipe1forNode3            3  AN1forNode3        0.1        350        130 8.291999e+04         CV          ;
 Pipe1forNode5            5  AN1forNode5        0.1        350        130 1.730059e+05         CV          ;
 Pipe1forNode9            9  AN1forNode9        0.1        350        130 1.401348e+07         CV          ;
Pipe1forNode10           10 AN1forNode10        0.1        350        130 2.189606e+05         CV          ;
Pipe1forNode11           11 AN1forNode11        0.1        350        130 1.401348e+07         CV          ;
Pipe1forNode13           13 AN1forNode13        0.1        350        130 1.042325e+06         CV          ;
Pipe1forNode15           15 AN1forNode15        0.1        350        130 1.081287e+04         CV          ;
Pipe1forNode17           17 AN1forNode17        0.1        350        130 1.401348e+07         CV          ;
Pipe1forNode18           18 AN1forNode18        0.1        350        130 1.401348e+07         CV          ;
Pipe1forNode20           20 AN1forNode20        0.1        350        130 1.401348e+07         CV          ;
Pipe1forNode21           21 AN1forNode21        0.1        350        130 1.557053e+06         CV          ;
Pipe1forNode22           22 AN1forNode22        0.1        350        130 1.401348e+07         CV          ;
Pipe1forNode25           25 AN1forNode25        0.1        350        130 1.261213e+08         CV          ;
Pipe1forNode26           26 AN1forNode26        0.1        350        130 1.401348e+07         CV          ;
Pipe1forNode27           27 AN1forNode27        0.1        350        130 9.731582e+04         CV          ;
Pipe1forNode28           28 AN1forNode28        0.1        350        130 1.557053e+06         CV          ;
Pipe1forNode30           30 AN1forNode30        0.1        350        130 3.503370e+06         CV          ;
Pipe1forNode31           31 AN1forNode31        0.1        350        130 1.401348e+07         CV          ;
Pipe1forNode32           32 AN1forNode32        0.1        350        130 3.503370e+06         CV          ;
Pipe1forNode33           33 AN1forNode33        0.1        350        130 5.605391e+05         CV          ;
Pipe1forNode34           34 AN1forNode34        0.1        350        130 3.892633e+05         CV          ;
Pipe1forNode35           35 AN1forNode35        0.1        350        130 3.892633e+05         CV          ;
Pipe1forNode36           36 AN1forNode36        0.1        350        130 1.401348e+05         CV          ;
Pipe1forNode37           37 AN1forNode37        0.1        350        130 1.401348e+07         CV          ;
Pipe1forNode38           38 AN1forNode38        0.1        350        130 5.605391e+05         CV          ;
Pipe1forNode39           39 AN1forNode39        0.1        350        130 1.401348e+07         CV          ;
Pipe1forNode40           40 AN1forNode40        0.1        350        130 1.401348e+07         CV          ;
Pipe1forNode41           41 AN1forNode41        0.1        350        130 4.848954e+04         CV          ;
Pipe1forNode42           42 AN1forNode42        0.1        350        130 3.892633e+05         CV          ;
Pipe1forNode43           43 AN1forNode43        0.1        350        130 1.557053e+06         CV          ;
Pipe1forNode44           44 AN1forNode44        0.1        350        130 1.368504e+04         CV          ;
Pipe1forNode45           45 AN1forNode45        0.1        350        130 2.189606e+05         CV          ;
Pipe1forNode49           49 AN1forNode49        0.1        350        130 2.859894e+05         CV          ;
Pipe1forNode50           50 AN1forNode50        0.1        350        130 8.758424e+05         CV          ;
Pipe1forNode52           52 AN1forNode52        0.1        350        130 1.401348e+07         CV          ;
Pipe1forNode54           54 AN1forNode54        0.1        350        130 1.401348e+07         CV          ;
 Pipe2forNode1  AN2forNode1   ATforNode1        0.1        350        130 0.000000e+00         CV          ;
 Pipe2forNode2  AN2forNode2   ATforNode2        0.1        350        130 0.000000e+00         CV          ;
 Pipe2forNode3  AN2forNode3   ATforNode3        0.1        350        130 0.000000e+00         CV          ;
 Pipe2forNode5  AN2forNode5   ATforNode5        0.1        350        130 0.000000e+00         CV          ;
 Pipe2forNode9  AN2forNode9   ATforNode9        0.1        350        130 0.000000e+00         CV          ;
Pipe2forNode10 AN2forNode10  ATforNode10        0.1        350        130 0.000000e+00         CV          ;
Pipe2forNode11 AN2forNode11  ATforNode11        0.1        350        130 0.000000e+00         CV          ;
Pipe2forNode13 AN2forNode13  ATforNode13        0.1        350        130 0.000000e+00         CV          ;
Pipe2forNode15 AN2forNode15  ATforNode15        0.1        350        130 0.000000e+00         CV          ;
Pipe2forNode17 AN2forNode17  ATforNode17        0.1        350        130 0.000000e+00         CV          ;
Pipe2forNode18 AN2forNode18  ATforNode18        0.1        350        130 0.000000e+00         CV          ;
Pipe2forNode20 AN2forNode20  ATforNode20        0.1        350        130 0.000000e+00         CV          ;
Pipe2forNode21 AN2forNode21  ATforNode21        0.1        350        130 0.000000e+00         CV          ;
Pipe2forNode22 AN2forNode22  ATforNode22        0.1        350        130 0.000000e+00         CV          ;
Pipe2forNode25 AN2forNode25  ATforNode25        0.1        350        130 0.000000e+00         CV          ;
Pipe2forNode26 AN2forNode26  ATforNode26        0.1        350        130 0.000000e+00         CV          ;
Pipe2forNode27 AN2forNode27  ATforNode27        0.1        350        130 0.000000e+00         CV          ;
Pipe2forNode28 AN2forNode28  ATforNode28        0.1        350        130 0.000000e+00         CV          ;
Pipe2forNode30 AN2forNode30  ATforNode30        0.1        350        130 0.000000e+00         CV          ;
Pipe2forNode31 AN2forNode31  ATforNode31        0.1        350        130 0.000000e+00         CV          ;
Pipe2forNode32 AN2forNode32  ATforNode32        0.1        350        130 0.000000e+00         CV          ;
Pipe2forNode33 AN2forNode33  ATforNode33        0.1        350        130 0.000000e+00         CV          ;
Pipe2forNode34 AN2forNode34  ATforNode34        0.1        350        130 0.000000e+00         CV          ;
Pipe2forNode35 AN2forNode35  ATforNode35        0.1        350        130 0.000000e+00         CV          ;
Pipe2forNode36 AN2forNode36  ATforNode36        0.1        350        130 0.000000e+00         CV          ;
Pipe2forNode37 AN2forNode37  ATforNode37        0.1        350        130 0.000000e+00         CV          ;
Pipe2forNode38 AN2forNode38  ATforNode38        0.1        350        130 0.000000e+00         CV          ;
Pipe2forNode39 AN2forNode39  ATforNode39        0.1        350        130 0.000000e+00         CV          ;
Pipe2forNode40 AN2forNode40  ATforNode40        0.1        350        130 0.000000e+00         CV          ;
Pipe2forNode41 AN2forNode41  ATforNode41        0.1        350        130 0.000000e+00         CV          ;
Pipe2forNode42 AN2forNode42  ATforNode42        0.1        350        130 0.000000e+00         CV          ;
Pipe2forNode43 AN2forNode43  ATforNode43        0.1        350        130 0.000000e+00         CV          ;
Pipe2forNode44 AN2forNode44  ATforNode44        0.1        350        130 0.000000e+00         CV          ;
Pipe2forNode45 AN2forNode45  ATforNode45        0.1        350        130 0.000000e+00         CV          ;
Pipe2forNode49 AN2forNode49  ATforNode49        0.1        350        130 0.000000e+00         CV          ;
Pipe2forNode50 AN2forNode50  ATforNode50        0.1        350        130 0.000000e+00         CV          ;
Pipe2forNode52 AN2forNode52  ATforNode52        0.1        350        130 0.000000e+00         CV          ;
Pipe2forNode54 AN2forNode54  ATforNode54        0.1        350        130 0.000000e+00         CV          ;


[PUMPS]
;ID              	Node1           	Node2           	Parameters

[VALVES]
;ID              	Node1           	Node2           	Diameter    	Type	Setting     	MinorLoss
 APSVforNode1  AN1forNode1  AN2forNode1       12.0        PSV     0.0000     0.0000          ;
 APSVforNode2  AN1forNode2  AN2forNode2       12.0        PSV     0.0000     0.0000          ;
 APSVforNode3  AN1forNode3  AN2forNode3       12.0        PSV     0.0000     0.0000          ;
 APSVforNode5  AN1forNode5  AN2forNode5       12.0        PSV     0.0000     0.0000          ;
 APSVforNode9  AN1forNode9  AN2forNode9       12.0        PSV     0.0000     0.0000          ;
APSVforNode10 AN1forNode10 AN2forNode10       12.0        PSV     0.0000     0.0000          ;
APSVforNode11 AN1forNode11 AN2forNode11       12.0        PSV     0.0000     0.0000          ;
APSVforNode13 AN1forNode13 AN2forNode13       12.0        PSV     0.0000     0.0000          ;
APSVforNode15 AN1forNode15 AN2forNode15       12.0        PSV     0.0000     0.0000          ;
APSVforNode17 AN1forNode17 AN2forNode17       12.0        PSV     0.0000     0.0000          ;
APSVforNode18 AN1forNode18 AN2forNode18       12.0        PSV     0.0000     0.0000          ;
APSVforNode20 AN1forNode20 AN2forNode20       12.0        PSV     0.0000     0.0000          ;
APSVforNode21 AN1forNode21 AN2forNode21       12.0        PSV     0.0000     0.0000          ;
APSVforNode22 AN1forNode22 AN2forNode22       12.0        PSV     0.0000     0.0000          ;
APSVforNode25 AN1forNode25 AN2forNode25       12.0        PSV     0.0000     0.0000          ;
APSVforNode26 AN1forNode26 AN2forNode26       12.0        PSV     0.0000     0.0000          ;
APSVforNode27 AN1forNode27 AN2forNode27       12.0        PSV     0.0000     0.0000          ;
APSVforNode28 AN1forNode28 AN2forNode28       12.0        PSV     0.0000     0.0000          ;
APSVforNode30 AN1forNode30 AN2forNode30       12.0        PSV     0.0000     0.0000          ;
APSVforNode31 AN1forNode31 AN2forNode31       12.0        PSV     0.0000     0.0000          ;
APSVforNode32 AN1forNode32 AN2forNode32       12.0        PSV     0.0000     0.0000          ;
APSVforNode33 AN1forNode33 AN2forNode33       12.0        PSV     0.0000     0.0000          ;
APSVforNode34 AN1forNode34 AN2forNode34       12.0        PSV     0.0000     0.0000          ;
APSVforNode35 AN1forNode35 AN2forNode35       12.0        PSV     0.0000     0.0000          ;
APSVforNode36 AN1forNode36 AN2forNode36       12.0        PSV     0.0000     0.0000          ;
APSVforNode37 AN1forNode37 AN2forNode37       12.0        PSV     0.0000     0.0000          ;
APSVforNode38 AN1forNode38 AN2forNode38       12.0        PSV     0.0000     0.0000          ;
APSVforNode39 AN1forNode39 AN2forNode39       12.0        PSV     0.0000     0.0000          ;
APSVforNode40 AN1forNode40 AN2forNode40       12.0        PSV     0.0000     0.0000          ;
APSVforNode41 AN1forNode41 AN2forNode41       12.0        PSV     0.0000     0.0000          ;