; Filename: /Users/omaraliamer/Desktop/UofT/Papers/Clean Network Files/SWMM/Final Files/N3a_SimpleTank.inp
; WNTR: 0.4.2
; Created: 2022-09-19 11:34:48
[TITLE]
modena -- Bragalli, D'Ambrosio, Lee, Lodi, Toth (2008)
Originally presented by:
Bragalli, C., D'Ambrosio, C., Lee, J., Lodi, A., & Toth, P. (2012, June). On the optimal design of water distribution networks: a practical MINLP approach. Optimization and Engineering, 13 (2), 219-246.
Converted to represent an intermittent water supply assuming (among other things)
a minimum required head of 1cm between node and customer
Details of this specific conversion process are included in:
Meyer, D., He, M., Gibson, J. (2020). Discussion of "Dynamic Pressure-Dependent Simulation of Water Distribution Networks Considering Volume-Driven Demands Based on Noniterative Application of EPANET 2" by P. Sivakumar, Nikolai B. Gorev, Tiku T. Tanyimboh, Inna F. Kodzhespirova, C. R. Suribabu, and T. R. Neelakantan. Journal of Water Resources Planning and Management.

[JUNCTIONS]
;ID                      Elevation       Demand Pattern                 
 1                              39.49               0                            ;
 2                              39.62               0                            ;
 3                               38.7               0                            ;
 4                              37.25               0                            ;
 5                              36.27               0                            ;
 6                              35.95               0                            ;
 7                              35.95               0                            ;
 8                              36.09               0                            ;
 9                              36.18               0                            ;
 10                                37               0                            ;
 11                              36.5               0                            ;
 12                             37.39               0                            ;
 13                             38.07               0                            ;
 14                             37.02               0                            ;
 15                             41.26               0                            ;
 16                             39.35               0                            ;
 17                             39.53               0                            ;
 18                             36.59               0                            ;
 19                             36.76               0                            ;
 20                             37.72               0                            ;
 21                             37.31               0                            ;
 22                             37.62               0                            ;
 23                             36.99               0                            ;
 24                              35.2               0                            ;
 25                             35.11               0                            ;
 26                             34.65               0                            ;
 27                             34.33               0                            ;
 28                             36.15               0                            ;
 29                              36.3               0                            ;
 30                              36.1               0                            ;
 31                             36.14               0                            ;
 32                              35.8               0                            ;
 33                             33.26               0                            ;
 34                             33.34               0                            ;
 35                             33.51               0                            ;
 36                              32.7               0                            ;
 37                             32.65               0                            ;
 38                             32.56               0                            ;
 39                             33.56               0                            ;
 40                             31.59               0                            ;
 41                             31.38               0                            ;
 42                             32.67               0                            ;
 43                              33.5               0                            ;
 44                             33.57               0                            ;
 45                             33.77               0                            ;
 46                             34.14               0                            ;
 47                             33.68               0                            ;
 48                             33.71               0                            ;
 49                             31.68               0                            ;
 50                             33.34               0                            ;
 51                             32.83               0                            ;
 52                             32.78               0                            ;
 53                             39.28               0                            ;
 54                             37.12               0                            ;
 55                             36.48               0                            ;
 56                             36.42               0                            ;
 57                             36.13               0                            ;
 58                             36.05               0                            ;
 59                             36.77               0                            ;
 60                             35.48               0                            ;
 61                             35.05               0                            ;
 62                              35.1               0                            ;
 63                             37.95               0                            ;
 64                             38.44               0                            ;
 65                             37.81               0                            ;
 66                             38.22               0                            ;
 67                             38.73               0                            ;
 68                             38.95               0                            ;
 69                              39.7               0                            ;
 70                             40.59               0                            ;
 71                             40.81               0                            ;
 72                             41.06               0                            ;
 73                             41.45               0                            ;
 74                             41.83               0                            ;
 75                             41.44               0                            ;
 76                             41.09               0                            ;
 77                             40.74               0                            ;
 78                              38.6               0                            ;
 79                             36.91               0                            ;
 80                             36.75               0                            ;
 81                             36.81               0                            ;
 82                             37.05               0                            ;
 83                             35.88               0                            ;
 84                             36.45               0                            ;
 85                             36.16               0                            ;
 86                             34.99               0                            ;
 87                             35.61               0                            ;
 88                             34.89               0                            ;
 89                             35.59               0                            ;
 90                              35.7               0                            ;
 91                              35.2               0                            ;
 92                             35.64               0                            ;
 93                             35.93               0                            ;
 94                             37.64               0                            ;
 95                             37.17               0                            ;
 96                              37.1               0                            ;
 97                             36.97               0                            ;
 98                                37               0                            ;
 99                             36.74               0                            ;
 100                            34.78               0                            ;
 101                            34.26               0                            ;
 102                            33.66               0                            ;
 103                            33.78               0                            ;
 104                            33.75               0                            ;
 105                            33.38               0                            ;
 106                            34.85               0                            ;
 107                            34.27               0                            ;
 108                             34.3               0                            ;
 109                            33.95               0                            ;
 110                            33.92               0                            ;
 111                            32.32               0                            ;
 112                            34.76               0                            ;
 113                            34.21               0                            ;
 114                            34.92               0                            ;
 115                            32.96               0                            ;
 116                            30.69               0                            ;
 117                            30.59               0                            ;
 118                            30.73               0                            ;
 119                             30.7               0                            ;
 120                            31.02               0                            ;
 121                            31.03               0                            ;
 122                            31.75               0                            ;
 123                               32               0                            ;
 124                            32.05               0                            ;
 125                             32.1               0                            ;
 126                            33.76               0                            ;
 127                            32.27               0                            ;
 128                            31.86               0                            ;
 129                            32.42               0                            ;
 130                               33               0                            ;
 131                            33.63               0                            ;
 132                            36.37               0                            ;
 133                            35.69               0                            ;
 134                            35.52               0                            ;
 135                            35.56               0                            ;
 136                            35.92               0                            ;
 137                            35.37               0                            ;
 138                            35.06               0                            ;
 139                            34.12               0                            ;
 140                            39.35               0                            ;
 141                             39.1               0                            ;
 142                            39.84               0                            ;
 143                            39.84               0                            ;
 144                            39.45               0                            ;
 145                             39.7               0                            ;
 146                            37.95               0                            ;
 147                            37.61               0                            ;
 148                            37.95               0                            ;
 149                            35.69               0                            ;
 150                            35.32               0                            ;
 151                            35.81               0                            ;
 152                            35.81               0                            ;
 153                            36.02               0                            ;
 154                            38.25               0                            ;
 155                             37.5               0                            ;
 156                            37.54               0                            ;
 157                            37.08               0                            ;
 158                            36.76               0                            ;
 159                            35.88               0                            ;
 160                            35.77               0                            ;
 161                             34.7               0                            ;
 162                            35.37               0                            ;
 163                            34.99               0                            ;
 164                            35.93               0                            ;
 165                            36.27               0                            ;
 166                            32.67               0                            ;
 167                            32.75               0                            ;
 168                            32.88               0                            ;
 169                            34.09               0                            ;
 170                            36.09               0                            ;
 171                            36.05               0                            ;
 172                            36.04               0                            ;
 173                            36.02               0                            ;
 174                            31.76               0                            ;
 175                            31.91               0                            ;
 176                             31.8               0                            ;
 177                            31.48               0                            ;
 178                            31.12               0                            ;
 179                             31.1               0                            ;
 180                            31.19               0                            ;
 181                            30.39               0                            ;
 182                            30.55               0                            ;
 183                            31.13               0                            ;
 184                            31.81               0                            ;
 185                            32.34               0                            ;
 186                            32.83               0                            ;
 187                            33.69               0                            ;
 188                            33.17               0                            ;
 189                            33.23               0                            ;
 190                            33.34               0                            ;
 191                            33.77               0                            ;
 192                            33.77               0                            ;
 193                             32.2               0                            ;
 194                            34.41               0                            ;
 195                            33.39               0                            ;
 196                            34.34               0                            ;
 197                            35.03               0                            ;
 198                            34.44               0                            ;
 199                            34.53               0                            ;
 200                            34.94               0                            ;
 201                             34.7               0                            ;
 202                             36.7               0                            ;
 203                             36.2               0                            ;
 204                            35.03               0                            ;
 205                            36.77               0                            ;
 206                             36.2               0                            ;
 207                            37.88               0                            ;
 208                            38.03               0                            ;
 209                            36.86               0                            ;
 210                            37.24               0                            ;
 211                            36.66               0                            ;
 212                            36.49               0                            ;
 213                             37.3               0                            ;
 214                             40.3               0                            ;
 215                            39.85               0                            ;
 216                               41               0                            ;
 217                            41.16               0                            ;
 218                            35.05               0                            ;
 219                            33.92               0                            ;
 220                            32.14               0                            ;
 221                            34.17               0                            ;
 222                             35.1               0                            ;
 223                            31.55               0                            ;
 224                            31.75               0                            ;
 225                            32.07               0                            ;
 226                            31.94               0                            ;
 227                            31.66               0                            ;
 228                            31.04               0                            ;
 229                            31.05               0                            ;
 230                            38.49               0                            ;
 231                            35.68               0                            ;
 232                            35.39               0                            ;
 233                            34.89               0                            ;
 234                            34.86               0                            ;
 235                            34.99               0                            ;
 236                            32.54               0                            ;
 237                            34.41               0                            ;
 238                            36.16               0                            ;
 239                             35.3               0                            ;
 240                            35.17               0                            ;
 241                            32.92               0                            ;
 242                            33.07               0                            ;
 243                            31.91               0                            ;
 244                               32               0                            ;
 245                            32.05               0                            ;
 246                            32.05               0                            ;
 247                             30.7               0                            ;
 248                            31.33               0                            ;
 249                             36.3               0                            ;
 250                            35.83               0                            ;
 251                            36.95               0                            ;
 252                            38.01               0                            ;
 253                            36.65               0                            ;
 254                            36.91               0                            ;
 255                            36.77               0                            ;
 256                             31.5               0                            ;
 257                            38.65               0                            ;
 258                            39.54               0                            ;
 259                            39.58               0                            ;
 260                            39.58               0                            ;
 261                            40.55               0                            ;
 262                            40.79               0                            ;
 263                            40.95               0                            ;
 264                            37.76               0                            ;
 265                            35.96               0                            ;
 266                            36.81               0                            ;
 267                            36.21               0                            ;
 268                            35.61               0                            ;

[RESERVOIRS]
;ID                                   Head                  Pattern
 269                               72                            ;
 270                             73.8                            ;
 271                               73                            ;
 272                             74.5                            ;

[TANKS]
;ID                              Elevation           Init Level            Min Level            Max Level             Diameter           Min Volume Volume Curve         Overflow            
 TankforNode1                   39.49               0               0               1          1.8167               0                                             ;
 TankforNode2                   39.62               0               0               1          8.9306               0                                             ;
 TankforNode3                    38.7               0               0               1         16.7979               0                                             ;
 TankforNode4                   37.25               0               0               1         12.3212               0                                             ;
 TankforNode5                   36.27               0               0               1          7.2666               0                                             ;
 TankforNode6                   35.95               0               0               1            6.55               0                                             ;
 TankforNode7                   35.95               0               0               1          7.5269               0                                             ;
 TankforNode8                   36.09               0               0               1         10.7985               0                                             ;
 TankforNode9                   36.18               0               0               1          7.9878               0                                             ;
 TankforNode10                     37               0               0               1          9.8948               0                                             ;
 TankforNode11                   36.5               0               0               1          4.9195               0                                             ;
 TankforNode12                  37.39               0               0               1          1.2846               0                                             ;
 TankforNode13                  38.07               0               0               1          5.5993               0                                             ;
 TankforNode14                  37.02               0               0               1          4.4499               0                                             ;
 TankforNode15                  41.26               0               0               1         13.4727               0                                             ;
 TankforNode16                  39.35               0               0               1          1.2846               0                                             ;
 TankforNode17                  39.53               0               0               1         10.7475               0                                             ;
 TankforNode18                  36.59               0               0               1         16.0271               0                                             ;
 TankforNode20                  37.72               0               0               1          9.1737               0                                             ;
 TankforNode21                  37.31               0               0               1         15.9238               0                                             ;
 TankforNode22                  37.62               0               0               1          7.6357               0                                             ;
 TankforNode23                  36.99               0               0               1          8.5209               0                                             ;
 TankforNode24                   35.2               0               0               1         12.2764               0                                             ;
 TankforNode25                  35.11               0               0               1          5.6967               0                                             ;
 TankforNode26                  34.65               0               0               1          4.9751               0                                             ;
 TankforNode27                  34.33               0               0               1          5.9332               0                                             ;
 TankforNode28                  36.15               0               0               1         19.7757               0                                             ;
 TankforNode29                   36.3               0               0               1          7.1522               0                                             ;
 TankforNode30                   36.1               0               0               1          1.4833               0                                             ;
 TankforNode31                  36.14               0               0               1          1.0488               0                                             ;
 TankforNode32                   35.8               0               0               1         12.6949               0                                             ;
 TankforNode33                  33.26               0               0               1          11.345               0                                             ;
 TankforNode34                  33.34               0               0               1         10.3299               0                                             ;
 TankforNode35                  33.51               0               0               1          8.0904               0                                             ;
 TankforNode36                   32.7               0               0               1          8.8066               0                                             ;
 TankforNode37                  32.65               0               0               1         12.8028               0                                             ;
 TankforNode38                  32.56               0               0               1          10.773               0                                             ;