
[TITLE]
;;Project Title/Notes

[OPTIONS]
;;Option             Value
FLOW_UNITS           LPS
INFILTRATION         HORTON
FLOW_ROUTING         DYNWAVE
LINK_OFFSETS         DEPTH
MIN_SLOPE            0
ALLOW_PONDING        NO
SKIP_STEADY_STATE    NO

START_DATE           05/18/2022
START_TIME           00:00:00
REPORT_START_DATE    05/18/2022
REPORT_START_TIME    00:00:00
END_DATE             05/18/2022
END_TIME             08:00:00

SWEEP_START          01/01
SWEEP_END            12/31
DRY_DAYS             0
REPORT_STEP          00:00:10
WET_STEP             00:01:00
DRY_STEP             00:01:00
ROUTING_STEP         0:00:01
RULE_STEP            00:00:00

INERTIAL_DAMPING     PARTIAL
NORMAL_FLOW_LIMITED  BOTH
FORCE_MAIN_EQUATION  H-W
VARIABLE_STEP        0.75
LENGTHENING_STEP     0
MIN_SURFAREA         0.00000001
MAX_TRIALS           20
HEAD_TOLERANCE       0.000005
SYS_FLOW_TOL         5
LAT_FLOW_TOL         5
MINIMUM_STEP         0.1
THREADS              4

[FILES]
;;Interfacing Files


[EVAPORATION]
;;Data Source    Parameters
;;-------------- ----------------
CONSTANT         0.0
DRY_ONLY         NO

[JUNCTIONS]
;;Name           Elevation  MaxDepth   InitDepth  SurDepth   Aponded
;;-------------- ---------- ---------- ---------- ---------- ----------
         1 712.000000          0          0        100          0

         2 707.510000          0          0        100          0

         3 702.180000          0          0        100          0

         4 687.000000          0          0        100          0

         5 686.260000          0          0        100          0

         6 687.000000          0          0        100          0

         7 666.000000          0          0        100          0

         8 650.000000          0          0        100          0

         9 660.700000          0          0        100          0

        10 671.000000          0          0        100          0

        11 671.430000          0          0        100          0

        12 670.350000          0          0        100          0

        13 670.350000          0          0        100          0

        14 674.100000          0          0        100          0

        15 710.390000          0          0        100          0

        16 711.040000          0          0        100          0

        17 723.250000          0          0        100          0

        18 711.500000          0          0        100          0

        19 731.530000          0          0        100          0

        20 728.190000          0          0        100          0

        21 757.020000          0          0        100          0

        22 741.380000          0          0        100          0

        23 777.190000          0          0        100          0

        24 772.000000          0          0        100          0

        25 772.000000          0          0        100          0

        26 762.000000          0          0        100          0

        27 737.130000          0          0        100          0

        28 727.210000          0          0        100          0

        29 727.000000          0          0        100          0

        30 719.000000          0          0        100          0

        31 711.080000          0          0        100          0

        32 705.000000          0          0        100          0

        33 700.360000          0          0        100          0

        34 757.000000          0          0        100          0

        35 749.000000          0          0        100          0

        36 746.240000          0          0        100          0

        37 746.000000          0          0        100          0

        38 751.080000          0          0        100          0

        39 758.020000          0          0        100          0

        40 760.000000          0          0        100          0

        41 738.750000          0          0        100          0

        42 735.830000          0          0        100          0

        43 719.990000          0          0        100          0

        44 717.360000          0          0        100          0

        45 717.360000          0          0        100          0

        46 715.000000          0          0        100          0

        47 713.020000          0          0        100          0

        48 712.000000          0          0        100          0

        49 719.800000          0          0        100          0

        50 720.200000          0          0        100          0

        51 722.670000          0          0        100          0

        52 716.520000          0          0        100          0

        53 725.000000          0          0        100          0

        54 725.000000          0          0        100          0

        55 745.720000          0          0        100          0

        56 764.600000          0          0        100          0

     1-1-2 711.358571          0          0        100          0

     1-2-2 710.717143          0          0        100          0

     1-3-2 710.075714          0          0        100          0

     1-4-2 709.434286          0          0        100          0

     1-5-2 708.792857          0          0        100          0

     1-6-2 708.151429          0          0        100          0

     2-1-3 706.177500          0          0        100          0

     2-2-3 704.845000          0          0        100          0

     2-3-3 703.512500          0          0        100          0

     3-1-4 700.011429          0          0        100          0

     3-2-4 697.842857          0          0        100          0

     3-3-4 695.674286          0          0        100          0

     3-4-4 693.505714          0          0        100          0

     3-5-4 691.337143          0          0        100          0

     3-6-4 689.168571          0          0        100          0

     4-1-5 686.932727          0          0        100          0

     4-2-5 686.865455          0          0        100          0

     4-3-5 686.798182          0          0        100          0

     4-4-5 686.730909          0          0        100          0

     4-5-5 686.663636          0          0        100          0

     4-6-5 686.596364          0          0        100          0

     4-7-5 686.529091          0          0        100          0

     4-8-5 686.461818          0          0        100          0

     4-9-5 686.394545          0          0        100          0

    4-10-5 686.327273          0          0        100          0

     5-1-6 686.306250          0          0        100          0

     5-2-6 686.352500          0          0        100          0

     5-3-6 686.398750          0          0        100          0

     5-4-6 686.445000          0          0        100          0

     5-5-6 686.491250          0          0        100          0

     5-6-6 686.537500          0          0        100          0

     5-7-6 686.583750          0          0        100          0

     5-8-6 686.630000          0          0        100          0

     5-9-6 686.676250          0          0        100          0

    5-10-6 686.722500          0          0        100          0

    5-11-6 686.768750          0          0        100          0

    5-12-6 686.815000          0          0        100          0

    5-13-6 686.861250          0          0        100          0

    5-14-6 686.907500          0          0        100          0

    5-15-6 686.953750          0          0        100          0

     6-1-7 685.894737          0          0        100          0

     6-2-7 684.789474          0          0        100          0

     6-3-7 683.684211          0          0        100          0

     6-4-7 682.578947          0          0        100          0

     6-5-7 681.473684          0          0        100          0

     6-6-7 680.368421          0          0        100          0

     6-7-7 679.263158          0          0        100          0

     6-8-7 678.157895          0          0        100          0

     6-9-7 677.052632          0          0        100          0

    6-10-7 675.947368          0          0        100          0

    6-11-7 674.842105          0          0        100          0

    6-12-7 673.736842          0          0        100          0

    6-13-7 672.631579          0          0        100          0

    6-14-7 671.526316          0          0        100          0

    6-15-7 670.421053          0          0        100          0

    6-16-7 669.315789          0          0        100          0

    6-17-7 668.210526          0          0        100          0

    6-18-7 667.105263          0          0        100          0

     7-1-8 665.238095          0          0        100          0

     7-2-8 664.476190          0          0        100          0

     7-3-8 663.714286          0          0        100          0

     7-4-8 662.952381          0          0        100          0

     7-5-8 662.190476          0          0        100          0

     7-6-8 661.428571          0          0        100          0

     7-7-8 660.666667          0          0        100          0

     7-8-8 659.904762          0          0        100          0

     7-9-8 659.142857          0          0        100          0

    7-10-8 658.380952          0          0        100          0

    7-11-8 657.619048          0          0        100          0

    7-12-8 656.857143          0          0        100          0

    7-13-8 656.095238          0          0        100          0

    7-14-8 655.333333          0          0        100          0

    7-15-8 654.571429          0          0        100          0

    7-16-8 653.809524          0          0        100          0

    7-17-8 653.047619          0          0        100          0

    7-18-8 652.285714          0          0        100          0

    7-19-8 651.523810          0          0        100          0

    7-20-8 650.761905          0          0        100          0

     8-1-9 650.060112          0          0        100          0

     8-2-9 650.120225          0          0        100          0

     8-3-9 650.180337          0          0        100          0

     8-4-9 650.240449          0          0        100          0

     8-5-9 650.300562          0          0        100          0

     8-6-9 650.360674          0          0        100          0

     8-7-9 650.420787          0          0        100          0

     8-8-9 650.480899          0          0        100          0

     8-9-9 650.541011          0          0        100          0

    8-10-9 650.601124          0          0        100          0

    8-11-9 650.661236          0          0        100          0

    8-12-9 650.721348          0          0        100          0

    8-13-9 650.781461          0          0        100          0

    8-14-9 650.841573          0          0        100          0

    8-15-9 650.901685          0          0        100          0

    8-16-9 650.961798          0          0        100          0

    8-17-9 651.021910          0          0        100          0

    8-18-9 651.082022          0          0        100          0

    8-19-9 651.142135          0          0        100          0

    8-20-9 651.202247          0          0        100          0

    8-21-9 651.262360          0          0        100          0

    8-22-9 651.322472          0          0        100          0

    8-23-9 651.382584          0          0        100          0

    8-24-9 651.442697          0          0        100          0

    8-25-9 651.502809          0          0        100          0

    8-26-9 651.562921          0          0        100          0

    8-27-9 651.623034          0          0        100          0

    8-28-9 651.683146          0          0        100          0

    8-29-9 651.743258          0          0        100          0

    8-30-9 651.803371          0          0        100          0

    8-31-9 651.863483          0          0        100          0

    8-32-9 651.923596          0          0        100          0

    8-33-9 651.983708          0          0        100          0

    8-34-9 652.043820          0          0        100          0

    8-35-9 652.103933          0          0        100          0

    8-36-9 652.164045          0          0        100          0

    8-37-9 652.224157          0          0        100          0

    8-38-9 652.284270          0          0        100          0

    8-39-9 652.344382          0          0        100          0

    8-40-9 652.404494          0          0        100          0

    8-41-9 652.464607          0          0        100          0

    8-42-9 652.524719          0          0        100          0

    8-43-9 652.584831          0          0        100          0

    8-44-9 652.644944          0          0        100          0

    8-45-9 652.705056          0          0        100          0

    8-46-9 652.765169          0          0        100          0

    8-47-9 652.825281          0          0        100          0

    8-48-9 652.885393          0          0        100          0

    8-49-9 652.945506          0          0        100          0

    8-50-9 653.005618          0          0        100          0

    8-51-9 653.065730          0          0        100          0

    8-52-9 653.125843          0          0        100          0

    8-53-9 653.185955          0          0        100          0

    8-54-9 653.246067          0          0        100          0

    8-55-9 653.306180          0          0        100          0

    8-56-9 653.366292          0          0        100          0

    8-57-9 653.426404          0          0        100          0

    8-58-9 653.486517          0          0        100          0

    8-59-9 653.546629          0          0        100          0

    8-60-9 653.606742          0          0        100          0

    8-61-9 653.666854          0          0        100          0

    8-62-9 653.726966          0          0        100          0

    8-63-9 653.787079          0          0        100          0

    8-64-9 653.847191          0          0        100          0

    8-65-9 653.907303          0          0        100          0

    8-66-9 653.967416          0          0        100          0

    8-67-9 654.027528          0          0        100          0

    8-68-9 654.087640          0          0        100          0

    8-69-9 654.147753          0          0        100          0

    8-70-9 654.207865          0          0        100          0

    8-71-9 654.267978          0          0        100          0

    8-72-9 654.328090          0          0        100          0

    8-73-9 654.388202          0          0        100          0

    8-74-9 654.448315          0          0        100          0

    8-75-9 654.508427          0          0        100          0

    8-76-9 654.568539          0          0        100          0

    8-77-9 654.628652          0          0        100          0

    8-78-9 654.688764          0          0        100          0

    8-79-9 654.748876          0          0        100          0

    8-80-9 654.808989          0          0        100          0

    8-81-9 654.869101          0          0        100          0

    8-82-9 654.929213          0          0        100          0

    8-83-9 654.989326          0          0        100          0

    8-84-9 655.049438          0          0        100          0

    8-85-9 655.109551          0          0        100          0

    8-86-9 655.169663          0          0        100          0

    8-87-9 655.229775          0          0        100          0

    8-88-9 655.289888          0          0        100          0

    8-89-9 655.350000          0          0        100          0

    8-90-9 655.410112          0          0        100          0

    8-91-9 655.470225          0          0        100          0

    8-92-9 655.530337          0          0        100          0

    8-93-9 655.590449          0          0        100          0

    8-94-9 655.650562          0          0        100          0

    8-95-9 655.710674          0          0        100          0

    8-96-9 655.770787          0          0        100          0

    8-97-9 655.830899          0          0        100          0

    8-98-9 655.891011          0          0        100          0

    8-99-9 655.951124          0          0        100          0

   8-100-9 656.011236          0          0        100          0

   8-101-9 656.071348          0          0        100          0

   8-102-9 656.131461          0          0        100          0

   8-103-9 656.191573          0          0        100          0

   8-104-9 656.251685          0          0        100          0

   8-105-9 656.311798          0          0        100          0

   8-106-9 656.371910          0          0        100          0

   8-107-9 656.432022          0          0        100          0

   8-108-9 656.492135          0          0        100          0

   8-109-9 656.552247          0          0        100          0

   8-110-9 656.612360          0          0        100          0

   8-111-9 656.672472          0          0        100          0

   8-112-9 656.732584          0          0        100          0

   8-113-9 656.792697          0          0        100          0

   8-114-9 656.852809          0          0        100          0

   8-115-9 656.912921          0          0        100          0

   8-116-9 656.973034          0          0        100          0

   8-117-9 657.033146          0          0        100          0

   8-118-9 657.093258          0          0        100          0

   8-119-9 657.153371          0          0        100          0

   8-120-9 657.213483          0          0        100          0

   8-121-9 657.273596          0          0        100          0

   8-122-9 657.333708          0          0        100          0

   8-123-9 657.393820          0          0        100          0

   8-124-9 657.453933          0          0        100          0

   8-125-9 657.514045          0          0        100          0

   8-126-9 657.574157          0          0        100          0

   8-127-9 657.634270          0          0        100          0

   8-128-9 657.694382          0          0        100          0

   8-129-9 657.754494          0          0        100          0

   8-130-9 657.814607          0          0        100          0

   8-131-9 657.874719          0          0        100          0

   8-132-9 657.934831          0          0        100          0

   8-133-9 657.994944          0          0        100          0

   8-134-9 658.055056          0          0        100          0

   8-135-9 658.115169          0          0        100          0

   8-136-9 658.175281          0          0        100          0

   8-137-9 658.235393          0          0        100          0

   8-138-9 658.295506          0          0        100          0

   8-139-9 658.355618          0          0        100          0

   8-140-9 658.415730          0          0        100          0

   8-141-9 658.475843          0          0        100          0

   8-142-9 658.535955          0          0        100          0

   8-143-9 658.596067          0          0        100          0

   8-144-9 658.656180          0          0        100          0

   8-145-9 658.716292          0          0        100          0

   8-146-9 658.776404          0          0        100          0

   8-147-9 658.836517          0          0        100          0

   8-148-9 658.896629          0          0        100          0

   8-149-9 658.956742          0          0        100          0

   8-150-9 659.016854          0          0        100          0

   8-151-9 659.076966          0          0        100          0

   8-152-9 659.137079          0          0        100          0

   8-153-9 659.197191          0          0        100          0

   8-154-9 659.257303          0          0        100          0

   8-155-9 659.317416          0          0        100          0

   8-156-9 659.377528          0          0        100          0

   8-157-9 659.437640          0          0        100          0

   8-158-9 659.497753          0          0        100          0

   8-159-9 659.557865          0          0        100          0

   8-160-9 659.617978          0          0        100          0

   8-161-9 659.678090          0          0        100          0

   8-162-9 659.738202          0          0        100          0

   8-163-9 659.798315          0          0        100          0

   8-164-9 659.858427          0          0        100          0

   8-165-9 659.918539          0          0        100          0

   8-166-9 659.978652          0          0        100          0

   8-167-9 660.038764          0          0        100          0

   8-168-9 660.098876          0          0        100          0

   8-169-9 660.158989          0          0        100          0

   8-170-9 660.219101          0          0        100          0

   8-171-9 660.279213          0          0        100          0

   8-172-9 660.339326          0          0        100          0

   8-173-9 660.399438          0          0        100          0

   8-174-9 660.459551          0          0        100          0

   8-175-9 660.519663          0          0        100          0

   8-176-9 660.579775          0          0        100          0

   8-177-9 660.639888          0          0        100          0

    9-1-10 661.435714          0          0        100          0

    9-2-10 662.171429          0          0        100          0

    9-3-10 662.907143          0          0        100          0

    9-4-10 663.642857          0          0        100          0

    9-5-10 664.378571          0          0        100          0

    9-6-10 665.114286          0          0        100          0

    9-7-10 665.850000          0          0        100          0

    9-8-10 666.585714          0          0        100          0

    9-9-10 667.321429          0          0        100          0

   9-10-10 668.057143          0          0        100          0

   9-11-10 668.792857          0          0        100          0

   9-12-10 669.528571          0          0        100          0

   9-13-10 670.264286          0          0        100          0

   10-1-11 671.023889          0          0        100          0

   10-2-11 671.047778          0          0        100          0

   10-3-11 671.071667          0          0        100          0

   10-4-11 671.095556          0          0        100          0

   10-5-11 671.119444          0          0        100          0

   10-6-11 671.143333          0          0        100          0

   10-7-11 671.167222          0          0        100          0

   10-8-11 671.191111          0          0        100          0

   10-9-11 671.215000          0          0        100          0

  10-10-11 671.238889          0          0        100          0

  10-11-11 671.262778          0          0        100          0

  10-12-11 671.286667          0          0        100          0

  10-13-11 671.310556          0          0        100          0

  10-14-11 671.334444          0          0        100          0

  10-15-11 671.358333          0          0        100          0

  10-16-11 671.382222          0          0        100          0

  10-17-11 671.406111          0          0        100          0

   11-1-12 671.370000          0          0        100          0

   11-2-12 671.310000          0          0        100          0

   11-3-12 671.250000          0          0        100          0

   11-4-12 671.190000          0          0        100          0

   11-5-12 671.130000          0          0        100          0

   11-6-12 671.070000          0          0        100          0

   11-7-12 671.010000          0          0        100          0

   11-8-12 670.950000          0          0        100          0

   11-9-12 670.890000          0          0        100          0

  11-10-12 670.830000          0          0        100          0

  11-11-12 670.770000          0          0        100          0

  11-12-12 670.710000          0          0        100          0

  11-13-12 670.650000          0          0        100          0

  11-14-12 670.590000          0          0        100          0

  11-15-12 670.530000          0          0        100          0

  11-16-12 670.470000          0          0        100          0

  11-17-12 670.410000          0          0        100          0

   12-1-13 670.350000          0          0        100          0

   12-2-13 670.350000          0          0        100          0

   12-3-13 670.350000          0          0        100          0

   12-4-13 670.350000          0          0        100          0

   12-5-13 670.350000          0          0        100          0

   12-6-13 670.350000          0          0        100          0

   12-7-13 670.350000          0          0        100          0

   12-8-13 670.350000          0          0        100          0

   12-9-13 670.350000          0          0        100          0

   12-1-14 670.766667          0          0        100          0

   12-2-14 671.183333          0          0        100          0

   12-3-14 671.600000          0          0        100          0

   12-4-14 672.016667          0          0        100          0

   12-5-14 672.433333          0          0        100          0

   12-6-14 672.850000          0          0        100          0

   12-7-14 673.266667          0          0        100          0

   12-8-14 673.683333          0          0        100          0

   10-1-15 672.010000          0          0        100          0

   10-2-15 673.020000          0          0        100          0

   10-3-15 674.030000          0          0        100          0

   10-4-15 675.040000          0          0        100          0

   10-5-15 676.050000          0          0        100          0

   10-6-15 677.060000          0          0        100          0

   10-7-15 678.070000          0          0        100          0

   10-8-15 679.080000          0          0        100          0

   10-9-15 680.090000          0          0        100          0

  10-10-15 681.100000          0          0        100          0

  10-11-15 682.110000          0          0        100          0

  10-12-15 683.120000          0          0        100          0

  10-13-15 684.130000          0          0        100          0

  10-14-15 685.140000          0          0        100          0

  10-15-15 686.150000          0          0        100          0

  10-16-15 687.160000          0          0        100          0

  10-17-15 688.170000          0          0        100          0

  10-18-15 689.180000          0          0        100          0

  10-19-15 690.190000          0          0        100          0

  10-20-15 691.200000          0          0        100          0

  10-21-15 692.210000          0          0        100          0

  10-22-15 693.220000          0          0        100          0

  10-23-15 694.230000          0          0        100          0

  10-24-15 695.240000          0          0        100          0

  10-25-15 696.250000          0          0        100          0

  10-26-15 697.260000          0          0        100          0

  10-27-15 698.270000          0          0        100          0

  10-28-15 699.280000          0          0        100          0

  10-29-15 700.290000          0          0        100          0

  10-30-15 701.300000          0          0        100          0

  10-31-15 702.310000          0          0        100          0

  10-32-15 703.320000          0          0        100          0

  10-33-15 704.330000          0          0        100          0

  10-34-15 705.340000          0          0        100          0

  10-35-15 706.350000          0          0        100          0

  10-36-15 707.360000          0          0        100          0

  10-37-15 708.370000          0          0        100          0

  10-38-15 709.380000          0          0        100          0

   15-1-16 710.498333          0          0        100          0

   15-2-16 710.606667          0          0        100          0

   15-3-16 710.715000          0          0        100          0

   15-4-16 710.823333          0          0        100          0

   15-5-16 710.931667          0          0        100          0

   16-1-17 712.261000          0          0        100          0

   16-2-17 713.482000          0          0        100          0

   16-3-17 714.703000          0          0        100          0

   16-4-17 715.924000          0          0        100          0

   16-5-17 717.145000          0          0        100          0

   16-6-17 718.366000          0          0        100          0

   16-7-17 719.587000          0          0        100          0

   16-8-17 720.808000          0          0        100          0

   16-9-17 722.029000          0          0        100          0

   16-1-18 711.132000          0          0        100          0
